
 ===================================================
  XFOIL Version 6.99
  Copyright (C) 2000   Mark Drela, Harold Youngren

  This software comes with ABSOLUTELY NO WARRANTY,
    subject to the GNU General Public License.

  Caveat computor
 ===================================================

 File  xfoil.def  not found

   QUIT    Exit program

  .OPER    Direct operating point(s)
  .MDES    Complex mapping design routine
  .QDES    Surface speed design routine
  .GDES    Geometry design routine

   SAVE f  Write airfoil to labeled coordinate file
   PSAV f  Write airfoil to plain coordinate file
   ISAV f  Write airfoil to ISES coordinate file
   MSAV f  Write airfoil to MSES coordinate file
   REVE    Reverse written-airfoil node ordering

   LOAD f  Read buffer airfoil from coordinate file
   NACA i  Set NACA 4,5-digit airfoil and buffer airfoil
   INTE    Set buffer airfoil by interpolating two airfoils
   NORM    Buffer airfoil normalization toggle
   XYCM rr Change CM reference location, currently  0.25000 0.00000

   BEND    Display structural properties of current airfoil

   PCOP    Set current-airfoil panel nodes directly from buffer airfoil points
   PANE    Set current-airfoil panel nodes ( 160 ) based on curvature
  .PPAR    Show/change paneling

  .PLOP    Plotting options

   WDEF f  Write  current-settings file
   RDEF f  Reread current-settings file
   NAME s  Specify new airfoil name
   NINC    Increment name version number

   Z       Zoom    | (available in all menus)
   U       Unzoom  | 

 XFOIL   c>   Max thickness =     0.150043  at x =   0.300
 Max camber    =     0.011133  at x =   0.051

 Buffer airfoil set using 331 points

 Blunt trailing edge.  Gap =  0.00315

 Paneling parameters used...
   Number of panel nodes       160
   Panel bunching parameter    1.000
   TE/LE panel density ratio   0.150
   Refined-area/LE panel density ratio    0.200
   Top    side refined area x/c limits  1.000 1.000
   Bottom side refined area x/c limits  1.000 1.000

 XFOIL   c>  
    Present paneling parameters...
  N  i   Number of panel nodes       160
  P  r   Panel bunching parameter    1.000
  T  r   TE/LE panel density ratio   0.150
  R  r   Refined area/LE  panel density ratio   0.200
  XT rr  Top    side refined area x/c limits    1.000 1.000
  XB rr  Bottom side refined area x/c limits    1.000 1.000
  Z oom
  U nzoom

Change what ? (<cr> if nothing else)   c>  
Enter number of panel nodes   i>  
Change what ? (<cr> if nothing else)   c>  
 Blunt trailing edge.  Gap =  0.00315

 Maximum panel corner angle = 13.285   at  i,x,y  =  54   0.0015  -0.0075

    Present paneling parameters...
  N  i   Number of panel nodes       100
  P  r   Panel bunching parameter    1.000
  T  r   TE/LE panel density ratio   0.150
  R  r   Refined area/LE  panel density ratio   0.200
  XT rr  Top    side refined area x/c limits    1.000 1.000
  XB rr  Bottom side refined area x/c limits    1.000 1.000
  Z oom
  U nzoom

Change what ? (<cr> if nothing else)   c>  
 ***  Input not recognized  ***

    Present paneling parameters...
  N  i   Number of panel nodes       100
  P  r   Panel bunching parameter    1.000
  T  r   TE/LE panel density ratio   0.150
  R  r   Refined area/LE  panel density ratio   0.200
  XT rr  Top    side refined area x/c limits    1.000 1.000
  XB rr  Bottom side refined area x/c limits    1.000 1.000
  Z oom
  U nzoom

Change what ? (<cr> if nothing else)   c>  
 ***  Input not recognized  ***

    Present paneling parameters...
  N  i   Number of panel nodes       100
  P  r   Panel bunching parameter    1.000
  T  r   TE/LE panel density ratio   0.150
  R  r   Refined area/LE  panel density ratio   0.200
  XT rr  Top    side refined area x/c limits    1.000 1.000
  XB rr  Bottom side refined area x/c limits    1.000 1.000
  Z oom
  U nzoom

Change what ? (<cr> if nothing else)   c>  
 ***  Input not recognized  ***

    Present paneling parameters...
  N  i   Number of panel nodes       100
  P  r   Panel bunching parameter    1.000
  T  r   TE/LE panel density ratio   0.150
  R  r   Refined area/LE  panel density ratio   0.200
  XT rr  Top    side refined area x/c limits    1.000 1.000
  XB rr  Bottom side refined area x/c limits    1.000 1.000
  Z oom
  U nzoom

Change what ? (<cr> if nothing else)   c>  
 XFOIL   c>  
 XFOIL   c>  
 XFOIL   c>  
.OPERi   c>  
.OPERi   c>  
 Sonic Cp =    -66.86      Sonic Q/Qinf =     9.138


.OPERi   c>  
 M  =    0.1000
 Re =   1000000

.OPERv   c>  
 Polar  1 newly created for accumulation
 Airfoil archived with polar: NACA 21015                                      

Enter  polar save filename  OR  <return> for no file   s>  
 Polar save file will NOT be written

Enter  polar dump filename  OR  <return> for no file   s>  
 Polar dump file will NOT be written

 Polar accumulation enabled

.OPERva   c>   Calculating unit vorticity distributions ...
 Calculating wake trajectory ...
 Calculating source influence matrix ...

 Solving BL system ...

 Initializing BL ...
    side            1  ...
 MRCHUE: Inverse mode at  38     Hk =   5.067
 MRCHUE: Inverse mode at  39     Hk =   6.457
 MRCHUE: Inverse mode at  40     Hk =   2.500
 MRCHUE: Inverse mode at  46     Hk =   2.500
    side            2  ...
 MRCHUE: Inverse mode at  13     Hk =   5.289
 MRCHUE: Inverse mode at  14     Hk =   7.428
 MRCHUE: Inverse mode at  15     Hk =   9.486
 MRCHUE: Inverse mode at  16     Hk =   4.662
 MRCHUE: Inverse mode at  17     Hk =   2.500
 MRCHUE: Inverse mode at  55     Hk =   2.500
 MRCHUE: Inverse mode at  56     Hk =   2.500

 Side 1  free  transition at x/c =  0.8365   40
 Side 2  free  transition at x/c =  0.0212   16

   1   rms: 0.2308E+00   max: -.1225E+01   D at   46  1   RLX: 0.408
       a = -5.000      CL = -0.4864
      Cm = -0.0061     CD =  0.00796   =>   CDf =  0.00629    CDp =  0.00167

 Side 1  free  transition at x/c =  0.8590   41
 Side 2  free  transition at x/c =  0.0213   16

   2   rms: 0.1181E+00   max: -.5607E+00   T at   46  1   RLX: 0.892
       a = -5.000      CL = -0.4625
      Cm = -0.0079     CD =  0.01014   =>   CDf =  0.00621    CDp =  0.00392

 MRCHDU: Convergence failed at  44  side 1    Res =  0.2761E+01
 MRCHDU: Convergence failed at  45  side 1    Res =  0.1426E+01
 MRCHDU: Convergence failed at  46  side 1    Res =  0.2437E+01
 Side 1  free  transition at x/c =  0.9574   44
 Side 2  free  transition at x/c =  0.0205   16

   3   rms: 0.7444E-01   max: 0.6158E+00   T at   46  1
       a = -5.000      CL = -0.4411
      Cm = -0.0125     CD =  0.01063   =>   CDf =  0.00589    CDp =  0.00473

 Side 1  free  transition at x/c =  0.9074   42
 Side 2  free  transition at x/c =  0.0207   16

   4   rms: 0.2295E-01   max: 0.3098E+00   D at   43  1
       a = -5.000      CL = -0.4438
      Cm = -0.0118     CD =  0.01078   =>   CDf =  0.00597    CDp =  0.00481

 Side 1  free  transition at x/c =  0.9104   42
 Side 2  free  transition at x/c =  0.0206   16

   5   rms: 0.2351E-02   max: -.3386E-01   D at   43  1
       a = -5.000      CL = -0.4431
      Cm = -0.0120     CD =  0.01077   =>   CDf =  0.00595    CDp =  0.00482

 Side 1  free  transition at x/c =  0.9093   42
 Side 2  free  transition at x/c =  0.0206   16

   6   rms: 0.4612E-04   max: -.7960E-03   D at   43  1
       a = -5.000      CL = -0.4430
      Cm = -0.0120     CD =  0.01077   =>   CDf =  0.00595    CDp =  0.00481
 plradd ia,ip,cpol            1          45  3.33887688E-03

 Point added to stored polar  1
 Save file unspecified or not available
 Dump file unspecified or not available

.OPERva   c>  
.OPERva   c>  
.OPERva   c>   Calculating wake trajectory ...
 Calculating source influence matrix ...

 Solving BL system ...

 Side 1  free  transition at x/c =  0.9093   42
 Side 2  free  transition at x/c =  0.0206   16

   1   rms: 0.3217E-01   max: -.1349E+00   T at   16  2
       a = -4.800      CL = -0.4226
      Cm = -0.0114     CD =  0.01057   =>   CDf =  0.00616    CDp =  0.00440

 Side 1  free  transition at x/c =  0.8963   43
 Side 2  free  transition at x/c =  0.0214   15

   2   rms: 0.3458E-02   max: -.3274E-01   C at   43  1
       a = -4.800      CL = -0.4225
      Cm = -0.0114     CD =  0.01058   =>   CDf =  0.00599    CDp =  0.00459

 Side 1  free  transition at x/c =  0.8981   43
 Side 2  free  transition at x/c =  0.0215   15

   3   rms: 0.2175E-03   max: 0.1760E-02   D at    4  1
       a = -4.800      CL = -0.4225
      Cm = -0.0114     CD =  0.01058   =>   CDf =  0.00598    CDp =  0.00460

 Side 1  free  transition at x/c =  0.8981   43
 Side 2  free  transition at x/c =  0.0215   15

   4   rms: 0.6149E-06   max: -.4368E-05   C at   43  1
       a = -4.800      CL = -0.4225
      Cm = -0.0114     CD =  0.01058   =>   CDf =  0.00598    CDp =  0.00460
 plradd ia,ip,cpol            2          46  3.33887688E-03

 Point added to stored polar  1
 Save file unspecified or not available
 Dump file unspecified or not available

.OPERva   c>  
.OPERva   c>  
.OPERva   c>   Calculating wake trajectory ...
 Calculating source influence matrix ...

 Solving BL system ...

 Side 1  free  transition at x/c =  0.8981   43
 Side 2  free  transition at x/c =  0.0215   15

   1   rms: 0.3384E-01   max: -.1531E+00   D at   43  1
       a = -4.600      CL = -0.4019
      Cm = -0.0109     CD =  0.01041   =>   CDf =  0.00598    CDp =  0.00443

 Side 1  free  transition at x/c =  0.8869   42
 Side 2  free  transition at x/c =  0.0223   15

   2   rms: 0.3046E-02   max: -.2602E-01   D at   15  2
       a = -4.600      CL = -0.4017
      Cm = -0.0109     CD =  0.01042   =>   CDf =  0.00602    CDp =  0.00440

 Side 1  free  transition at x/c =  0.8868   42
 Side 2  free  transition at x/c =  0.0224   15

   3   rms: 0.1192E-04   max: 0.1071E-03   D at   15  2
       a = -4.600      CL = -0.4017
      Cm = -0.0109     CD =  0.01042   =>   CDf =  0.00602    CDp =  0.00440
 plradd ia,ip,cpol            3          46  3.33887688E-03

 Point added to stored polar  1
 Save file unspecified or not available
 Dump file unspecified or not available

.OPERva   c>  
.OPERva   c>  
.OPERva   c>   Calculating wake trajectory ...
 Calculating source influence matrix ...

 Solving BL system ...

 Side 1  free  transition at x/c =  0.8868   42
 Side 2  free  transition at x/c =  0.0224   15

   1   rms: 0.3226E-01   max: -.1497E+00   T at   15  2
       a = -4.400      CL = -0.3804
      Cm = -0.0106     CD =  0.01024   =>   CDf =  0.00602    CDp =  0.00422

 Side 1  free  transition at x/c =  0.8746   42
 Side 2  free  transition at x/c =  0.0231   15

   2   rms: 0.3236E-02   max: -.2931E-01   C at   42  1
       a = -4.400      CL = -0.3805
      Cm = -0.0105     CD =  0.01026   =>   CDf =  0.00604    CDp =  0.00421

 Side 1  free  transition at x/c =  0.8758   42
 Side 2  free  transition at x/c =  0.0231   15

   3   rms: 0.2067E-04   max: -.2773E-03   D at   43  1
       a = -4.400      CL = -0.3805
      Cm = -0.0105     CD =  0.01026   =>   CDf =  0.00604    CDp =  0.00421
 plradd ia,ip,cpol            4          46  3.33887688E-03

 Point added to stored polar  1
 Save file unspecified or not available
 Dump file unspecified or not available

.OPERva   c>  
.OPERva   c>  
.OPERva   c>   Calculating wake trajectory ...
 Calculating source influence matrix ...

 Solving BL system ...

 Side 1  free  transition at x/c =  0.8758   42
 Side 2  free  transition at x/c =  0.0231   15

   1   rms: 0.3319E-01   max: -.1400E+00   T at   15  2
       a = -4.200      CL = -0.3595
      Cm = -0.0101     CD =  0.01010   =>   CDf =  0.00604    CDp =  0.00406

 Side 1  free  transition at x/c =  0.8608   42
 Side 2  free  transition at x/c =  0.0236   15

   2   rms: 0.2858E-02   max: 0.4340E-01   D at   42  1
       a = -4.200      CL = -0.3596
      Cm = -0.0100     CD =  0.01013   =>   CDf =  0.00611    CDp =  0.00402

 Side 1  free  transition at x/c =  0.8626   42
 Side 2  free  transition at x/c =  0.0236   15

   3   rms: 0.2277E-03   max: -.3393E-02   D at   42  1
       a = -4.200      CL = -0.3596
      Cm = -0.0100     CD =  0.01013   =>   CDf =  0.00610    CDp =  0.00403

 Side 1  free  transition at x/c =  0.8625   42
 Side 2  free  transition at x/c =  0.0236   15

   4   rms: 0.1627E-05   max: -.2165E-04   D at   42  1
       a = -4.200      CL = -0.3596
      Cm = -0.0100     CD =  0.01013   =>   CDf =  0.00610    CDp =  0.00403
 plradd ia,ip,cpol            5          46  3.33887688E-03

 Point added to stored polar  1
 Save file unspecified or not available
 Dump file unspecified or not available

.OPERva   c>  
.OPERva   c>  
.OPERva   c>   Calculating wake trajectory ...
 Calculating source influence matrix ...

 Solving BL system ...

 Side 1  free  transition at x/c =  0.8625   42
 Side 2  free  transition at x/c =  0.0236   15

   1   rms: 0.3424E-01   max: -.1972E+00   D at   42  1
       a = -4.000      CL = -0.3387
      Cm = -0.0095     CD =  0.01004   =>   CDf =  0.00610    CDp =  0.00394

 Side 1  free  transition at x/c =  0.8510   41
 Side 2  free  transition at x/c =  0.0243   16

   2   rms: 0.7333E-02   max: 0.7760E-01   D at   16  2
       a = -4.000      CL = -0.3392
      Cm = -0.0095     CD =  0.00986   =>   CDf =  0.00616    CDp =  0.00370

 Side 1  free  transition at x/c =  0.8506   41
 Side 2  free  transition at x/c =  0.0248   16

   3   rms: 0.4969E-03   max: 0.3006E-02   T at   16  2
       a = -4.000      CL = -0.3392
      Cm = -0.0095     CD =  0.00986   =>   CDf =  0.00616    CDp =  0.00370

 Side 1  free  transition at x/c =  0.8506   41
 Side 2  free  transition at x/c =  0.0247   16

   4   rms: 0.4690E-05   max: 0.2807E-04   D at   15  2
       a = -4.000      CL = -0.3392
      Cm = -0.0095     CD =  0.00986   =>   CDf =  0.00616    CDp =  0.00370
 plradd ia,ip,cpol            6          46  3.33887688E-03

 Point added to stored polar  1
 Save file unspecified or not available
 Dump file unspecified or not available

.OPERva   c>  
.OPERva   c>  
.OPERva   c>   Calculating wake trajectory ...
 Calculating source influence matrix ...

 Solving BL system ...

 Side 1  free  transition at x/c =  0.8506   41
 Side 2  free  transition at x/c =  0.0247   16

   1   rms: 0.4163E-01   max: -.1527E+00   T at   16  2
       a = -3.800      CL = -0.3188
      Cm = -0.0089     CD =  0.00959   =>   CDf =  0.00636    CDp =  0.00323

 Side 1  free  transition at x/c =  0.8345   42
 Side 2  free  transition at x/c =  0.0265   15

   2   rms: 0.1072E-01   max: 0.1215E+00   D at   15  2
       a = -3.800      CL = -0.3185
      Cm = -0.0090     CD =  0.00967   =>   CDf =  0.00623    CDp =  0.00343

 Side 1  free  transition at x/c =  0.8366   42
 Side 2  free  transition at x/c =  0.0261   15

   3   rms: 0.2445E-03   max: 0.1624E-02   T at   15  2
       a = -3.800      CL = -0.3185
      Cm = -0.0090     CD =  0.00967   =>   CDf =  0.00621    CDp =  0.00346

 Side 1  free  transition at x/c =  0.8365   42
 Side 2  free  transition at x/c =  0.0260   15

   4   rms: 0.1890E-05   max: 0.1206E-04   D at    4  1
       a = -3.800      CL = -0.3185
      Cm = -0.0090     CD =  0.00967   =>   CDf =  0.00621    CDp =  0.00346
 plradd ia,ip,cpol            7          47  6.05591573E-03

 Point added to stored polar  1
 Save file unspecified or not available
 Dump file unspecified or not available

.OPERva   c>  
.OPERva   c>  
.OPERva   c>   Calculating wake trajectory ...
 Calculating source influence matrix ...

 Solving BL system ...

 Side 1  free  transition at x/c =  0.8365   42
 Side 2  free  transition at x/c =  0.0260   15

   1   rms: 0.3686E-01   max: -.1864E+00   D at   42  1
       a = -3.600      CL = -0.2978
      Cm = -0.0084     CD =  0.00954   =>   CDf =  0.00621    CDp =  0.00332

 Side 1  free  transition at x/c =  0.8236   41
 Side 2  free  transition at x/c =  0.0273   15

   2   rms: 0.2044E-02   max: -.3057E-01   D at   42  1
       a = -3.600      CL = -0.2973
      Cm = -0.0086     CD =  0.00954   =>   CDf =  0.00625    CDp =  0.00328

 Side 1  free  transition at x/c =  0.8233   41
 Side 2  free  transition at x/c =  0.0273   15

   3   rms: 0.2334E-04   max: -.3265E-03   D at   42  1
       a = -3.600      CL = -0.2973
      Cm = -0.0086     CD =  0.00954   =>   CDf =  0.00625    CDp =  0.00328
 plradd ia,ip,cpol            8          47  6.05591573E-03

 Point added to stored polar  1
 Save file unspecified or not available
 Dump file unspecified or not available

.OPERva   c>  
.OPERva   c>  
.OPERva   c>   Calculating wake trajectory ...
 Calculating source influence matrix ...

 Solving BL system ...

 Side 1  free  transition at x/c =  0.8233   41
 Side 2  free  transition at x/c =  0.0273   15

   1   rms: 0.3468E-01   max: -.1609E+00   T at   15  2
       a = -3.400      CL = -0.2756
      Cm = -0.0083     CD =  0.00940   =>   CDf =  0.00625    CDp =  0.00314

 Side 1  free  transition at x/c =  0.8058   41
 Side 2  free  transition at x/c =  0.0286   15

   2   rms: 0.4836E-02   max: -.4464E-01   D at   15  2
       a = -3.400      CL = -0.2758
      Cm = -0.0082     CD =  0.00942   =>   CDf =  0.00631    CDp =  0.00311

 Side 1  free  transition at x/c =  0.8083   41
 Side 2  free  transition at x/c =  0.0287   15

   3   rms: 0.9075E-04   max: 0.1052E-02   C at   41  1
       a = -3.400      CL = -0.2758
      Cm = -0.0082     CD =  0.00942   =>   CDf =  0.00630    CDp =  0.00312
 plradd ia,ip,cpol            9          47  6.05591573E-03

 Point added to stored polar  1
 Save file unspecified or not available
 Dump file unspecified or not available

.OPERva   c>  
.OPERva   c>  
.OPERva   c>   Calculating wake trajectory ...
 Calculating source influence matrix ...

 Solving BL system ...

 Side 1  free  transition at x/c =  0.8082   41
 Side 2  free  transition at x/c =  0.0287   15

   1   rms: 0.3684E-01   max: 0.2112E+00   C at   41  1
       a = -3.200      CL = -0.2547
      Cm = -0.0078     CD =  0.00934   =>   CDf =  0.00630    CDp =  0.00304

 Side 1  free  transition at x/c =  0.7945   40
 Side 2  free  transition at x/c =  0.0299   15

   2   rms: 0.1802E-02   max: -.2727E-01   D at   41  1
       a = -3.200      CL = -0.2543
      Cm = -0.0079     CD =  0.00934   =>   CDf =  0.00636    CDp =  0.00298

 Side 1  free  transition at x/c =  0.7941   40
 Side 2  free  transition at x/c =  0.0299   15

   3   rms: 0.1944E-04   max: -.2749E-03   D at   41  1
       a = -3.200      CL = -0.2543
      Cm = -0.0079     CD =  0.00934   =>   CDf =  0.00636    CDp =  0.00298
 plradd ia,ip,cpol           10          47  6.05591573E-03

 Point added to stored polar  1
 Save file unspecified or not available
 Dump file unspecified or not available

.OPERva   c>  
.OPERva   c>  
.OPERva   c>   Calculating wake trajectory ...
 Calculating source influence matrix ...

 Solving BL system ...

 Side 1  free  transition at x/c =  0.7941   40
 Side 2  free  transition at x/c =  0.0299   15

   1   rms: 0.3549E-01   max: 0.2044E+00   C at   15  2
       a = -3.000      CL = -0.2321
      Cm = -0.0077     CD =  0.00925   =>   CDf =  0.00636    CDp =  0.00289

 Side 1  free  transition at x/c =  0.7766   40
 Side 2  free  transition at x/c =  0.0318   16

   2   rms: 0.1697E-01   max: -.1618E+00   D at   15  2
       a = -3.000      CL = -0.2330
      Cm = -0.0075     CD =  0.00918   =>   CDf =  0.00642    CDp =  0.00276

 Side 1  free  transition at x/c =  0.7791   40
 Side 2  free  transition at x/c =  0.0345   16

   3   rms: 0.6851E-02   max: 0.9912E-01   C at   16  2
       a = -3.000      CL = -0.2330
      Cm = -0.0075     CD =  0.00919   =>   CDf =  0.00640    CDp =  0.00279

 Side 1  free  transition at x/c =  0.7791   40
 Side 2  free  transition at x/c =  0.0339   16

   4   rms: 0.1048E-03   max: -.1731E-02   D at   16  2
       a = -3.000      CL = -0.2330
      Cm = -0.0075     CD =  0.00919   =>   CDf =  0.00640    CDp =  0.00279

 Side 1  free  transition at x/c =  0.7791   40
 Side 2  free  transition at x/c =  0.0339   16

   5   rms: 0.4216E-06   max: -.1929E-05   C at   21  2
       a = -3.000      CL = -0.2330
      Cm = -0.0075     CD =  0.00919   =>   CDf =  0.00640    CDp =  0.00279
 plradd ia,ip,cpol           11          47  6.05591573E-03

 Point added to stored polar  1
 Save file unspecified or not available
 Dump file unspecified or not available

.OPERva   c>  
.OPERva   c>  
.OPERva   c>   Calculating wake trajectory ...
 Calculating source influence matrix ...

 Solving BL system ...

 Side 1  free  transition at x/c =  0.7791   40
 Side 2  free  transition at x/c =  0.0339   16

   1   rms: 0.4593E-01   max: 0.2586E+00   D at   16  2
       a = -2.800      CL = -0.2122
      Cm = -0.0070     CD =  0.00907   =>   CDf =  0.00640    CDp =  0.00267

 Side 1  free  transition at x/c =  0.7638   39
 Side 2  free  transition at x/c =  0.0374   17

   2   rms: 0.2711E-01   max: -.4009E+00   D at   16  2
       a = -2.800      CL = -0.2118
      Cm = -0.0071     CD =  0.00907   =>   CDf =  0.00646    CDp =  0.00261

 Side 1  free  transition at x/c =  0.7637   39
 Side 2  free  transition at x/c =  0.1157   22

   3   rms: 0.6709E-01   max: 0.1350E+01   C at   22  2
       a = -2.800      CL = -0.2155
      Cm = -0.0065     CD =  0.00865   =>   CDf =  0.00615    CDp =  0.00250

 Side 1  free  transition at x/c =  0.7640   39
 Side 2  free  transition at x/c =  0.0405   17

   4   rms: 0.1009E-01   max: -.1561E+00   C at   17  2
       a = -2.800      CL = -0.2120
      Cm = -0.0071     CD =  0.00906   =>   CDf =  0.00644    CDp =  0.00261

 Side 1  free  transition at x/c =  0.7637   39
 Side 2  free  transition at x/c =  0.0425   17

   5   rms: 0.4958E-03   max: 0.9797E-02   C at   17  2
       a = -2.800      CL = -0.2119
      Cm = -0.0071     CD =  0.00906   =>   CDf =  0.00644    CDp =  0.00262

 Side 1  free  transition at x/c =  0.7637   39
 Side 2  free  transition at x/c =  0.0425   17

   6   rms: 0.9955E-06   max: -.7427E-05   D at   39  1
       a = -2.800      CL = -0.2119
      Cm = -0.0071     CD =  0.00906   =>   CDf =  0.00644    CDp =  0.00262
 plradd ia,ip,cpol           12          47  6.05591573E-03

 Point added to stored polar  1
 Save file unspecified or not available
 Dump file unspecified or not available

.OPERva   c>  
.OPERva   c>  
.OPERva   c>   Calculating wake trajectory ...
 Calculating source influence matrix ...

 Solving BL system ...

 Side 1  free  transition at x/c =  0.7637   39
 Side 2  free  transition at x/c =  0.0425   17

   1   rms: 0.1870E+00   max: -.3670E+01   C at   17  2   RLX: 0.136
       a = -2.600      CL = -0.2092
      Cm = -0.0070     CD =  0.00901   =>   CDf =  0.00644    CDp =  0.00258

 Side 1  free  transition at x/c =  0.7617   39
 Side 2  free  transition at x/c =  0.0460   17

   2   rms: 0.3856E+00   max: -.7807E+01   C at   17  2   RLX: 0.064
       a = -2.600      CL = -0.2080
      Cm = -0.0070     CD =  0.00899   =>   CDf =  0.00642    CDp =  0.00257

 Side 1  free  transition at x/c =  0.7609   39
 Side 2  free  transition at x/c =  0.0464   18

   3   rms: 0.1383E+00   max: -.2481E+01   C at   18  2   RLX: 0.202
       a = -2.600      CL = -0.2043
      Cm = -0.0068     CD =  0.00895   =>   CDf =  0.00657    CDp =  0.00238

 Side 1  free  transition at x/c =  0.7583   40
 Side 2  free  transition at x/c =  0.1523   23

   4   rms: 0.3099E+00   max: -.6032E+01   C at   23  2   RLX: 0.083
       a = -2.600      CL = -0.2051
      Cm = -0.0067     CD =  0.00821   =>   CDf =  0.00601    CDp =  0.00220

 Side 1  free  transition at x/c =  0.7576   40
 Side 2  free  transition at x/c =  0.1630   24

   5   rms: 0.2235E+00   max: 0.2865E+01   D at   24  2   RLX: 0.524
       a = -2.600      CL = -0.2068
      Cm = -0.0055     CD =  0.00753   =>   CDf =  0.00596    CDp =  0.00157

 Side 1  free  transition at x/c =  0.7530   40
 Side 2  free  transition at x/c =  0.1771   24

   6   rms: 0.1361E+00   max: -.2520E+01   C at   24  2   RLX: 0.198
       a = -2.600      CL = -0.2021
      Cm = -0.0052     CD =  0.00802   =>   CDf =  0.00589    CDp =  0.00212

 Side 1  free  transition at x/c =  0.7521   40
 Side 2  free  transition at x/c =  0.1865   24

   7   rms: 0.8920E-01   max: -.1838E+01   C at   24  2   RLX: 0.272
       a = -2.600      CL = -0.2012
      Cm = -0.0053     CD =  0.00802   =>   CDf =  0.00586    CDp =  0.00216

 Side 1  free  transition at x/c =  0.7511   40
 Side 2  free  transition at x/c =  0.2049   25

   8   rms: 0.5553E-01   max: -.1093E+01   C at   25  2   RLX: 0.457
       a = -2.600      CL = -0.2013
      Cm = -0.0053     CD =  0.00787   =>   CDf =  0.00578    CDp =  0.00209

 Side 1  free  transition at x/c =  0.7499   40
 Side 2  free  transition at x/c =  0.2138   26

   9   rms: 0.1744E-01   max: 0.2189E+00   D at   26  2
       a = -2.600      CL = -0.2008
      Cm = -0.0053     CD =  0.00780   =>   CDf =  0.00576    CDp =  0.00204

 Side 1  free  transition at x/c =  0.7485   40
 Side 2  free  transition at x/c =  0.2341   26

  10   rms: 0.3625E-02   max: 0.7202E-01   C at   26  2
       a = -2.600      CL = -0.2011
      Cm = -0.0053     CD =  0.00778   =>   CDf =  0.00568    CDp =  0.00210
 VISCAL:  Convergence failed

.OPERva   c>  
.OPERva   c>  
.OPERva   c>   Calculating wake trajectory ...
 Calculating source influence matrix ...

 Solving BL system ...

 Side 1  free  transition at x/c =  0.7485   40
 Side 2  free  transition at x/c =  0.2323   26

   1   rms: 0.2289E+00   max: -.4445E+01   C at   26  2   RLX: 0.112
       a = -2.400      CL = -0.1992
      Cm = -0.0052     CD =  0.00772   =>   CDf =  0.00568    CDp =  0.00203

 Side 1  free  transition at x/c =  0.7466   40
 Side 2  free  transition at x/c =  0.2414   27

   2   rms: 0.1166E+00   max: 0.1406E+01   D at   27  2
       a = -2.400      CL = -0.1857
      Cm = -0.0042     CD =  0.00712   =>   CDf =  0.00566    CDp =  0.00146

 Side 1  free  transition at x/c =  0.7346   39
 Side 2  free  transition at x/c =  0.2614   27

   3   rms: 0.6156E-01   max: -.8701E+00   D at   27  2   RLX: 0.575
       a = -2.400      CL = -0.1800
      Cm = -0.0045     CD =  0.00767   =>   CDf =  0.00577    CDp =  0.00191

 Side 1  free  transition at x/c =  0.7341   39
 Side 2  free  transition at x/c =  0.2927   28

   4   rms: 0.2472E-01   max: -.4613E+00   C at   28  2
       a = -2.400      CL = -0.1825
      Cm = -0.0046     CD =  0.00740   =>   CDf =  0.00549    CDp =  0.00191

 Side 1  free  transition at x/c =  0.7338   39
 Side 2  free  transition at x/c =  0.3266   30

   5   rms: 0.5060E-02   max: 0.7421E-01   D at   28  2
       a = -2.400      CL = -0.1839
      Cm = -0.0045     CD =  0.00727   =>   CDf =  0.00535    CDp =  0.00192

 Side 1  free  transition at x/c =  0.7339   39
 Side 2  free  transition at x/c =  0.3201   29

   6   rms: 0.9461E-03   max: -.1723E-01   C at   29  2
       a = -2.400      CL = -0.1837
      Cm = -0.0045     CD =  0.00729   =>   CDf =  0.00537    CDp =  0.00192

 Side 1  free  transition at x/c =  0.7339   39
 Side 2  free  transition at x/c =  0.3204   29

   7   rms: 0.3491E-05   max: 0.6378E-04   C at   29  2
       a = -2.400      CL = -0.1837
      Cm = -0.0045     CD =  0.00729   =>   CDf =  0.00537    CDp =  0.00192
 plradd ia,ip,cpol           13          48  6.05591573E-03

 Point added to stored polar  1
 Save file unspecified or not available
 Dump file unspecified or not available

.OPERva   c>  
.OPERva   c>  
.OPERva   c>   Calculating wake trajectory ...
 Calculating source influence matrix ...

 Solving BL system ...

 Side 1  free  transition at x/c =  0.7339   39
 Side 2  free  transition at x/c =  0.3204   29

   1   rms: 0.1005E+00   max: -.1833E+01   C at   29  2   RLX: 0.273
       a = -2.200      CL = -0.1780
      Cm = -0.0044     CD =  0.00723   =>   CDf =  0.00537    CDp =  0.00186

 Side 1  free  transition at x/c =  0.7298   39
 Side 2  free  transition at x/c =  0.3431   30

   2   rms: 0.4081E-01   max: -.4882E+00   C at   30  2
       a = -2.200      CL = -0.1631
      Cm = -0.0041     CD =  0.00707   =>   CDf =  0.00528    CDp =  0.00179

 Side 1  free  transition at x/c =  0.7163   39
 Side 2  free  transition at x/c =  0.3506   30

   3   rms: 0.2133E-01   max: -.3697E+00   C at   30  2
       a = -2.200      CL = -0.1628
      Cm = -0.0041     CD =  0.00714   =>   CDf =  0.00534    CDp =  0.00180

 Side 1  free  transition at x/c =  0.7180   39
 Side 2  free  transition at x/c =  0.3805   32

   4   rms: 0.4512E-02   max: 0.6144E-01   D at   30  2
       a = -2.200      CL = -0.1642
      Cm = -0.0039     CD =  0.00700   =>   CDf =  0.00518    CDp =  0.00182

 Side 1  free  transition at x/c =  0.7181   39
 Side 2  free  transition at x/c =  0.3763   31

   5   rms: 0.2568E-03   max: -.4357E-02   C at   31  2
       a = -2.200      CL = -0.1641
      Cm = -0.0039     CD =  0.00701   =>   CDf =  0.00518    CDp =  0.00182

 Side 1  free  transition at x/c =  0.7181   39
 Side 2  free  transition at x/c =  0.3763   31

   6   rms: 0.7062E-06   max: 0.5615E-05   C at   31  2
       a = -2.200      CL = -0.1641
      Cm = -0.0039     CD =  0.00701   =>   CDf =  0.00518    CDp =  0.00182
 plradd ia,ip,cpol           14          48  6.05591573E-03

 Point added to stored polar  1
 Save file unspecified or not available
 Dump file unspecified or not available

.OPERva   c>  
.OPERva   c>  
.OPERva   c>   Calculating wake trajectory ...
 Calculating source influence matrix ...

 Solving BL system ...

 Side 1  free  transition at x/c =  0.7181   39
 Side 2  free  transition at x/c =  0.3763   31

   1   rms: 0.6483E-01   max: -.9845E+00   C at   31  2   RLX: 0.508
       a = -2.000      CL = -0.1536
      Cm = -0.0037     CD =  0.00697   =>   CDf =  0.00519    CDp =  0.00178

 Side 1  free  transition at x/c =  0.7089   39
 Side 2  free  transition at x/c =  0.4007   32

   2   rms: 0.2270E-01   max: -.2401E+00   C at   32  2
       a = -2.000      CL = -0.1438
      Cm = -0.0034     CD =  0.00691   =>   CDf =  0.00514    CDp =  0.00178

 Side 1  free  transition at x/c =  0.7017   38
 Side 2  free  transition at x/c =  0.4102   33

   3   rms: 0.4336E-02   max: 0.4016E-01   D at   33  2
       a = -2.000      CL = -0.1435
      Cm = -0.0035     CD =  0.00686   =>   CDf =  0.00512    CDp =  0.00174

 Side 1  free  transition at x/c =  0.7023   38
 Side 2  free  transition at x/c =  0.4141   33

   4   rms: 0.7598E-03   max: -.1106E-01   D at   33  2
       a = -2.000      CL = -0.1436
      Cm = -0.0035     CD =  0.00686   =>   CDf =  0.00510    CDp =  0.00176

 Side 1  free  transition at x/c =  0.7023   38
 Side 2  free  transition at x/c =  0.4135   33

   5   rms: 0.8123E-05   max: -.1183E-03   D at   33  2
       a = -2.000      CL = -0.1436
      Cm = -0.0035     CD =  0.00686   =>   CDf =  0.00510    CDp =  0.00175
 plradd ia,ip,cpol           15          48  6.05591573E-03

 Point added to stored polar  1
 Save file unspecified or not available
 Dump file unspecified or not available

.OPERva   c>  
.OPERva   c>  
.OPERva   c>   Calculating wake trajectory ...
 Calculating source influence matrix ...

 Solving BL system ...

 Side 1  free  transition at x/c =  0.7023   38
 Side 2  free  transition at x/c =  0.4135   33

   1   rms: 0.6071E-01   max: 0.5966E+00   D at   33  2
       a = -1.800      CL = -0.1235
      Cm = -0.0030     CD =  0.00659   =>   CDf =  0.00510    CDp =  0.00149

 Side 1  free  transition at x/c =  0.6842   38
 Side 2  free  transition at x/c =  0.4356   33

   2   rms: 0.1386E-01   max: -.2477E+00   C at   33  2
       a = -1.800      CL = -0.1222
      Cm = -0.0032     CD =  0.00677   =>   CDf =  0.00510    CDp =  0.00167

 Side 1  free  transition at x/c =  0.6863   38
 Side 2  free  transition at x/c =  0.4516   34

   3   rms: 0.4174E-02   max: -.5587E-01   D at   34  2
       a = -1.800      CL = -0.1229
      Cm = -0.0031     CD =  0.00671   =>   CDf =  0.00500    CDp =  0.00171

 Side 1  free  transition at x/c =  0.6863   38
 Side 2  free  transition at x/c =  0.4486   34

   4   rms: 0.7053E-04   max: -.8305E-03   C at   34  2
       a = -1.800      CL = -0.1229
      Cm = -0.0031     CD =  0.00672   =>   CDf =  0.00502    CDp =  0.00170
 plradd ia,ip,cpol           16          48  6.05591573E-03

 Point added to stored polar  1
 Save file unspecified or not available
 Dump file unspecified or not available

.OPERva   c>  
.OPERva   c>  
.OPERva   c>   Calculating wake trajectory ...
 Calculating source influence matrix ...

 Solving BL system ...

 Side 1  free  transition at x/c =  0.6863   38
 Side 2  free  transition at x/c =  0.4486   34

   1   rms: 0.5462E-01   max: -.5504E+00   C at   34  2   RLX: 0.908
       a = -1.600      CL = -0.1045
      Cm = -0.0026     CD =  0.00661   =>   CDf =  0.00502    CDp =  0.00159

 Side 1  free  transition at x/c =  0.6730   37
 Side 2  free  transition at x/c =  0.4646   34

   2   rms: 0.1236E-01   max: -.2035E+00   C at   34  2
       a = -1.600      CL = -0.1011
      Cm = -0.0029     CD =  0.00667   =>   CDf =  0.00506    CDp =  0.00162

 Side 1  free  transition at x/c =  0.6712   38
 Side 2  free  transition at x/c =  0.4765   34

   3   rms: 0.1530E-02   max: -.2458E-01   D at   34  2
       a = -1.600      CL = -0.1016
      Cm = -0.0028     CD =  0.00663   =>   CDf =  0.00497    CDp =  0.00166

 Side 1  free  transition at x/c =  0.6713   38
 Side 2  free  transition at x/c =  0.4759   34

   4   rms: 0.2839E-03   max: 0.2486E-02   D at    4  1
       a = -1.600      CL = -0.1016
      Cm = -0.0028     CD =  0.00663   =>   CDf =  0.00498    CDp =  0.00165

 Side 1  free  transition at x/c =  0.6713   38
 Side 2  free  transition at x/c =  0.4759   34

   5   rms: 0.9505E-06   max: -.7736E-05   C at   34  2
       a = -1.600      CL = -0.1016
      Cm = -0.0028     CD =  0.00663   =>   CDf =  0.00498    CDp =  0.00165
 plradd ia,ip,cpol           17          49  6.05591573E-03

 Point added to stored polar  1
 Save file unspecified or not available
 Dump file unspecified or not available

.OPERva   c>  
.OPERva   c>  
.OPERva   c>   Calculating wake trajectory ...
 Calculating source influence matrix ...

 Solving BL system ...

 Side 1  free  transition at x/c =  0.6713   38
 Side 2  free  transition at x/c =  0.4759   34

   1   rms: 0.5045E-01   max: -.4375E+00   C at   34  2
       a = -1.400      CL = -0.0806
      Cm = -0.0024     CD =  0.00648   =>   CDf =  0.00498    CDp =  0.00150

 Side 1  free  transition at x/c =  0.6513   38
 Side 2  free  transition at x/c =  0.4928   34

   2   rms: 0.1037E-01   max: -.1786E+00   C at   34  2
       a = -1.400      CL = -0.0800
      Cm = -0.0025     CD =  0.00660   =>   CDf =  0.00501    CDp =  0.00159

 Side 1  free  transition at x/c =  0.6542   38
 Side 2  free  transition at x/c =  0.4980   35

   3   rms: 0.2215E-02   max: 0.2141E-01   D at   35  2
       a = -1.400      CL = -0.0801
      Cm = -0.0025     CD =  0.00659   =>   CDf =  0.00498    CDp =  0.00161

 Side 1  free  transition at x/c =  0.6539   38
 Side 2  free  transition at x/c =  0.4996   35

   4   rms: 0.2076E-03   max: -.3229E-02   D at   35  2
       a = -1.400      CL = -0.0801
      Cm = -0.0025     CD =  0.00659   =>   CDf =  0.00497    CDp =  0.00162

 Side 1  free  transition at x/c =  0.6539   38
 Side 2  free  transition at x/c =  0.4995   35

   5   rms: 0.1545E-05   max: -.2280E-04   D at   35  2
       a = -1.400      CL = -0.0801
      Cm = -0.0025     CD =  0.00659   =>   CDf =  0.00497    CDp =  0.00162
 plradd ia,ip,cpol           18          49  6.05591573E-03

 Point added to stored polar  1
 Save file unspecified or not available
 Dump file unspecified or not available

.OPERva   c>  
.OPERva   c>  
.OPERva   c>   Calculating wake trajectory ...
 Calculating source influence matrix ...

 Solving BL system ...

 Side 1  free  transition at x/c =  0.6539   38
 Side 2  free  transition at x/c =  0.4995   35

   1   rms: 0.4546E-01   max: 0.3433E+00   D at   35  2
       a = -1.200      CL = -0.0598
      Cm = -0.0020     CD =  0.00653   =>   CDf =  0.00497    CDp =  0.00156

 Side 1  free  transition at x/c =  0.6398   37
 Side 2  free  transition at x/c =  0.5210   35

   2   rms: 0.4543E-02   max: -.5652E-01   D at   38  1
       a = -1.200      CL = -0.0585
      Cm = -0.0022     CD =  0.00652   =>   CDf =  0.00493    CDp =  0.00159

 Side 1  free  transition at x/c =  0.6392   37
 Side 2  free  transition at x/c =  0.5226   35

   3   rms: 0.8954E-04   max: 0.1179E-02   C at   37  1
       a = -1.200      CL = -0.0585
      Cm = -0.0022     CD =  0.00652   =>   CDf =  0.00493    CDp =  0.00159
 plradd ia,ip,cpol           19          49  0.11788484    

 Point added to stored polar  1
 Save file unspecified or not available
 Dump file unspecified or not available

.OPERva   c>  
.OPERva   c>  
.OPERva   c>   Calculating wake trajectory ...
 Calculating source influence matrix ...

 Solving BL system ...

 Side 1  free  transition at x/c =  0.6391   37
 Side 2  free  transition at x/c =  0.5226   35

   1   rms: 0.4029E-01   max: -.3618E+00   C at   35  2
       a = -1.000      CL = -0.0362
      Cm = -0.0021     CD =  0.00651   =>   CDf =  0.00493    CDp =  0.00157

 Side 1  free  transition at x/c =  0.6195   37
 Side 2  free  transition at x/c =  0.5509   36

   2   rms: 0.5060E-02   max: 0.6004E-01   D at   37  1
       a = -1.000      CL = -0.0375
      Cm = -0.0019     CD =  0.00648   =>   CDf =  0.00492    CDp =  0.00156

 Side 1  free  transition at x/c =  0.6224   37
 Side 2  free  transition at x/c =  0.5480   36

   3   rms: 0.5221E-03   max: -.8074E-02   D at   37  1
       a = -1.000      CL = -0.0374
      Cm = -0.0019     CD =  0.00648   =>   CDf =  0.00491    CDp =  0.00157

 Side 1  free  transition at x/c =  0.6221   37
 Side 2  free  transition at x/c =  0.5481   36

   4   rms: 0.6892E-05   max: -.1013E-03   D at   37  1
       a = -1.000      CL = -0.0374
      Cm = -0.0019     CD =  0.00648   =>   CDf =  0.00491    CDp =  0.00157
 plradd ia,ip,cpol           20          49  0.13908476    

 Point added to stored polar  1
 Save file unspecified or not available
 Dump file unspecified or not available

.OPERva   c>  
.OPERva   c>  
.OPERva   c>   Calculating wake trajectory ...
 Calculating source influence matrix ...

 Solving BL system ...

 Side 1  free  transition at x/c =  0.6221   37
 Side 2  free  transition at x/c =  0.5481   36

   1   rms: 0.4735E-01   max: -.4852E+00   C at   36  2
       a = -0.800      CL = -0.0164
      Cm = -0.0015     CD =  0.00649   =>   CDf =  0.00491    CDp =  0.00158

 Side 1  free  transition at x/c =  0.6069   36
 Side 2  free  transition at x/c =  0.5739   37

   2   rms: 0.4713E-02   max: -.5241E-01   D at   37  1
       a = -0.800      CL = -0.0160
      Cm = -0.0016     CD =  0.00640   =>   CDf =  0.00485    CDp =  0.00155

 Side 1  free  transition at x/c =  0.6073   36
 Side 2  free  transition at x/c =  0.5762   37

   3   rms: 0.5805E-04   max: 0.7390E-03   C at   36  1
       a = -0.800      CL = -0.0160
      Cm = -0.0016     CD =  0.00640   =>   CDf =  0.00485    CDp =  0.00156
 plradd ia,ip,cpol           21          49  0.13908476    

 Point added to stored polar  1
 Save file unspecified or not available
 Dump file unspecified or not available

.OPERva   c>  
.OPERva   c>  
.OPERva   c>   Calculating wake trajectory ...
 Calculating source influence matrix ...

 Solving BL system ...

 Side 1  free  transition at x/c =  0.6073   36
 Side 2  free  transition at x/c =  0.5762   37

   1   rms: 0.4592E-01   max: -.4523E+00   C at   37  2
       a = -0.600      CL =  0.0057
      Cm = -0.0013     CD =  0.00637   =>   CDf =  0.00485    CDp =  0.00152

 Side 1  free  transition at x/c =  0.5883   36
 Side 2  free  transition at x/c =  0.5855   37

   2   rms: 0.1046E-01   max: -.1835E+00   C at   37  2
       a = -0.600      CL =  0.0061
      Cm = -0.0014     CD =  0.00646   =>   CDf =  0.00494    CDp =  0.00152

 Side 1  free  transition at x/c =  0.5895   36
 Side 2  free  transition at x/c =  0.5961   38

   3   rms: 0.1360E-02   max: -.1710E-01   C at   38  2
       a = -0.600      CL =  0.0054
      Cm = -0.0012     CD =  0.00641   =>   CDf =  0.00487    CDp =  0.00154

 Side 1  free  transition at x/c =  0.5895   36
 Side 2  free  transition at x/c =  0.5963   38

   4   rms: 0.1941E-04   max: 0.2458E-03   C at   38  2
       a = -0.600      CL =  0.0054
      Cm = -0.0013     CD =  0.00641   =>   CDf =  0.00486    CDp =  0.00155
 plradd ia,ip,cpol           22          49  4.81196605E-02

 Point added to stored polar  1
 Save file unspecified or not available
 Dump file unspecified or not available

.OPERva   c>  
.OPERva   c>  
.OPERva   c>   Calculating wake trajectory ...
 Calculating source influence matrix ...

 Solving BL system ...

 Side 1  free  transition at x/c =  0.5895   36
 Side 2  free  transition at x/c =  0.5963   38

   1   rms: 0.4147E-01   max: -.2857E+00   C at   38  2
       a = -0.400      CL =  0.0263
      Cm = -0.0009     CD =  0.00641   =>   CDf =  0.00487    CDp =  0.00154

 Side 1  free  transition at x/c =  0.5730   36
 Side 2  free  transition at x/c =  0.6158   37

   2   rms: 0.6125E-02   max: -.5971E-01   C at   37  2
       a = -0.400      CL =  0.0275
      Cm = -0.0011     CD =  0.00639   =>   CDf =  0.00486    CDp =  0.00153

 Side 1  free  transition at x/c =  0.5751   36
 Side 2  free  transition at x/c =  0.6164   37

   3   rms: 0.3942E-02   max: -.7530E-01   C at   37  2
       a = -0.400      CL =  0.0275
      Cm = -0.0011     CD =  0.00639   =>   CDf =  0.00485    CDp =  0.00154

 Side 1  free  transition at x/c =  0.5751   36
 Side 2  free  transition at x/c =  0.6164   37

   4   rms: 0.3935E-02   max: -.7535E-01   C at   37  2
       a = -0.400      CL =  0.0275
      Cm = -0.0011     CD =  0.00639   =>   CDf =  0.00485    CDp =  0.00154

 Side 1  free  transition at x/c =  0.5751   36
 Side 2  free  transition at x/c =  0.6164   37

   5   rms: 0.3936E-02   max: -.7536E-01   C at   37  2
       a = -0.400      CL =  0.0275
      Cm = -0.0011     CD =  0.00639   =>   CDf =  0.00485    CDp =  0.00154

 Side 1  free  transition at x/c =  0.5751   36
 Side 2  free  transition at x/c =  0.6164   37

   6   rms: 0.3936E-02   max: -.7537E-01   C at   37  2
       a = -0.400      CL =  0.0275
      Cm = -0.0011     CD =  0.00639   =>   CDf =  0.00485    CDp =  0.00154

 Side 1  free  transition at x/c =  0.5751   36
 Side 2  free  transition at x/c =  0.6164   37

   7   rms: 0.3936E-02   max: -.7537E-01   C at   37  2
       a = -0.400      CL =  0.0275
      Cm = -0.0011     CD =  0.00639   =>   CDf =  0.00485    CDp =  0.00154

 Side 1  free  transition at x/c =  0.5751   36
 Side 2  free  transition at x/c =  0.6164   37

   8   rms: 0.3936E-02   max: -.7537E-01   C at   37  2
       a = -0.400      CL =  0.0275
      Cm = -0.0011     CD =  0.00639   =>   CDf =  0.00485    CDp =  0.00154

 Side 1  free  transition at x/c =  0.5751   36
 Side 2  free  transition at x/c =  0.6164   37

   9   rms: 0.3936E-02   max: -.7537E-01   C at   37  2
       a = -0.400      CL =  0.0275
      Cm = -0.0011     CD =  0.00639   =>   CDf =  0.00485    CDp =  0.00154

 Side 1  free  transition at x/c =  0.5751   36
 Side 2  free  transition at x/c =  0.6164   37

  10   rms: 0.3936E-02   max: -.7537E-01   C at   37  2
       a = -0.400      CL =  0.0275
      Cm = -0.0011     CD =  0.00639   =>   CDf =  0.00485    CDp =  0.00154
 VISCAL:  Convergence failed

.OPERva   c>  
.OPERva   c>  
.OPERva   c>   Calculating wake trajectory ...
 Calculating source influence matrix ...

 Solving BL system ...

 Side 1  free  transition at x/c =  0.5751   36
 Side 2  free  transition at x/c =  0.6164   37

   1   rms: 0.4040E-01   max: 0.3194E+00   C at   36  1
       a = -0.200      CL =  0.0500
      Cm = -0.0010     CD =  0.00644   =>   CDf =  0.00485    CDp =  0.00159

 Side 1  free  transition at x/c =  0.5532   35
 Side 2  free  transition at x/c =  0.6419   38

   2   rms: 0.1489E-01   max: -.2383E+00   C at   38  2
       a = -0.200      CL =  0.0483
      Cm = -0.0006     CD =  0.00637   =>   CDf =  0.00486    CDp =  0.00151

 Side 1  free  transition at x/c =  0.5549   35
 Side 2  free  transition at x/c =  0.6448   38

   3   rms: 0.1078E-02   max: 0.1981E-01   C at   38  2
       a = -0.200      CL =  0.0482
      Cm = -0.0006     CD =  0.00637   =>   CDf =  0.00483    CDp =  0.00155

 Side 1  free  transition at x/c =  0.5550   35
 Side 2  free  transition at x/c =  0.6441   38

   4   rms: 0.5138E-05   max: -.9131E-04   C at   38  2
       a = -0.200      CL =  0.0482
      Cm = -0.0006     CD =  0.00637   =>   CDf =  0.00483    CDp =  0.00155
 plradd ia,ip,cpol           23          50  4.81196605E-02

 Point added to stored polar  1
 Save file unspecified or not available
 Dump file unspecified or not available

.OPERva   c>  
.OPERva   c>  
.OPERva   c>   Calculating wake trajectory ...
 Calculating source influence matrix ...

 Solving BL system ...

 Side 1  free  transition at x/c =  0.5550   35
 Side 2  free  transition at x/c =  0.6441   38

   1   rms: 0.3871E-01   max: -.2302E+00   C at   38  2
       a =  0.000      CL =  0.0708
      Cm = -0.0005     CD =  0.00638   =>   CDf =  0.00483    CDp =  0.00155

 Side 1  free  transition at x/c =  0.5308   35
 Side 2  free  transition at x/c =  0.6483   39

   2   rms: 0.2010E-01   max: -.1812E+00   D at   38  2
       a =  0.000      CL =  0.0697
      Cm = -0.0004     CD =  0.00637   =>   CDf =  0.00496    CDp =  0.00141

 Side 1  free  transition at x/c =  0.5357   35
 Side 2  free  transition at x/c =  0.6701   39

   3   rms: 0.1168E-01   max: -.1709E+00   D at   39  2
       a =  0.000      CL =  0.0693
      Cm = -0.0003     CD =  0.00636   =>   CDf =  0.00481    CDp =  0.00155

 Side 1  free  transition at x/c =  0.5351   35
 Side 2  free  transition at x/c =  0.6623   39

   4   rms: 0.8221E-03   max: -.1063E-01   C at   39  2
       a =  0.000      CL =  0.0696
      Cm = -0.0003     CD =  0.00638   =>   CDf =  0.00483    CDp =  0.00155

 Side 1  free  transition at x/c =  0.5350   35
 Side 2  free  transition at x/c =  0.6627   39

   5   rms: 0.2630E-05   max: -.3881E-04   D at   40  2
       a =  0.000      CL =  0.0696
      Cm = -0.0003     CD =  0.00638   =>   CDf =  0.00483    CDp =  0.00155
 plradd ia,ip,cpol           24          50  4.81196605E-02

 Point added to stored polar  1
 Save file unspecified or not available
 Dump file unspecified or not available

.OPERva   c>  
.OPERva   c>  
.OPERva   c>   Calculating wake trajectory ...
 Calculating source influence matrix ...

 Solving BL system ...

 Side 1  free  transition at x/c =  0.5350   35
 Side 2  free  transition at x/c =  0.6627   39

   1   rms: 0.4369E-01   max: -.3267E+00   D at   35  1
       a =  0.200      CL =  0.0906
      Cm =  0.0000     CD =  0.00647   =>   CDf =  0.00483    CDp =  0.00164

 Side 1  free  transition at x/c =  0.5163   34
 Side 2  free  transition at x/c =  0.6737   39

   2   rms: 0.6056E-02   max: -.7836E-01   C at   39  2
       a =  0.200      CL =  0.0918
      Cm = -0.0002     CD =  0.00643   =>   CDf =  0.00487    CDp =  0.00156

 Side 1  free  transition at x/c =  0.5163   34
 Side 2  free  transition at x/c =  0.6762   39

   3   rms: 0.1009E-03   max: 0.1123E-02   C at   34  1
       a =  0.200      CL =  0.0918
      Cm = -0.0002     CD =  0.00643   =>   CDf =  0.00487    CDp =  0.00156

 Side 1  free  transition at x/c =  0.5162   34
 Side 2  free  transition at x/c =  0.6762   39

   4   rms: 0.7444E-06   max: 0.9047E-05   C at   34  1
       a =  0.200      CL =  0.0918
      Cm = -0.0002     CD =  0.00643   =>   CDf =  0.00487    CDp =  0.00156
 plradd ia,ip,cpol           25          50  4.81196605E-02

 Point added to stored polar  1
 Save file unspecified or not available
 Dump file unspecified or not available

.OPERva   c>  
.OPERva   c>  
.OPERva   c>   Calculating wake trajectory ...
 Calculating source influence matrix ...

 Solving BL system ...

 Side 1  free  transition at x/c =  0.5162   34
 Side 2  free  transition at x/c =  0.6762   39

   1   rms: 0.3829E-01   max: 0.3421E+00   C at   34  1
       a =  0.400      CL =  0.1143
      Cm = -0.0001     CD =  0.00650   =>   CDf =  0.00487    CDp =  0.00163

 Side 1  free  transition at x/c =  0.4950   33
 Side 2  free  transition at x/c =  0.6928   40

   2   rms: 0.2439E-02   max: -.4126E-01   C at   33  1
       a =  0.400      CL =  0.1130
      Cm =  0.0002     CD =  0.00647   =>   CDf =  0.00489    CDp =  0.00158

 Side 1  free  transition at x/c =  0.4962   33
 Side 2  free  transition at x/c =  0.6925   40

   3   rms: 0.1853E-04   max: -.3236E-03   C at   33  1
       a =  0.400      CL =  0.1130
      Cm =  0.0002     CD =  0.00647   =>   CDf =  0.00489    CDp =  0.00158
 plradd ia,ip,cpol           26          50  4.81196605E-02

 Point added to stored polar  1
 Save file unspecified or not available
 Dump file unspecified or not available

.OPERva   c>  
.OPERva   c>  
.OPERva   c>   Calculating wake trajectory ...
 Calculating source influence matrix ...

 Solving BL system ...

 Side 1  free  transition at x/c =  0.4963   33
 Side 2  free  transition at x/c =  0.6925   40

   1   rms: 0.3826E-01   max: -.2702E+00   C at   40  2
       a =  0.600      CL =  0.1352
      Cm =  0.0003     CD =  0.00646   =>   CDf =  0.00487    CDp =  0.00159

 Side 1  free  transition at x/c =  0.4715   34
 Side 2  free  transition at x/c =  0.7046   39

   2   rms: 0.7637E-02   max: 0.8971E-01   D at   34  1
       a =  0.600      CL =  0.1349
      Cm =  0.0004     CD =  0.00654   =>   CDf =  0.00498    CDp =  0.00157

 Side 1  free  transition at x/c =  0.4764   34
 Side 2  free  transition at x/c =  0.7071   39

   3   rms: 0.1199E-02   max: -.1639E-01   D at   34  1
       a =  0.600      CL =  0.1350
      Cm =  0.0004     CD =  0.00654   =>   CDf =  0.00494    CDp =  0.00160

 Side 1  free  transition at x/c =  0.4756   34
 Side 2  free  transition at x/c =  0.7071   39

   4   rms: 0.1377E-04   max: -.1868E-03   D at   34  1
       a =  0.600      CL =  0.1350
      Cm =  0.0004     CD =  0.00654   =>   CDf =  0.00494    CDp =  0.00160
 plradd ia,ip,cpol           27          51  4.81196605E-02

 Point added to stored polar  1
 Save file unspecified or not available
 Dump file unspecified or not available

.OPERva   c>  
.OPERva   c>  
.OPERva   c>   Calculating wake trajectory ...
 Calculating source influence matrix ...

 Solving BL system ...

 Side 1  free  transition at x/c =  0.4756   34
 Side 2  free  transition at x/c =  0.7071   39

   1   rms: 0.4315E-01   max: -.3580E+00   D at   34  1
       a =  0.800      CL =  0.1565
      Cm =  0.0006     CD =  0.00670   =>   CDf =  0.00494    CDp =  0.00176

 Side 1  free  transition at x/c =  0.4560   33
 Side 2  free  transition at x/c =  0.7232   40

   2   rms: 0.4625E-02   max: -.6102E-01   D at   34  1
       a =  0.800      CL =  0.1564
      Cm =  0.0007     CD =  0.00657   =>   CDf =  0.00494    CDp =  0.00163

 Side 1  free  transition at x/c =  0.4565   33
 Side 2  free  transition at x/c =  0.7233   40

   3   rms: 0.5958E-04   max: 0.8782E-03   C at   33  1
       a =  0.800      CL =  0.1564
      Cm =  0.0007     CD =  0.00657   =>   CDf =  0.00494    CDp =  0.00163
 plradd ia,ip,cpol           28          51  4.81196605E-02

 Point added to stored polar  1
 Save file unspecified or not available
 Dump file unspecified or not available

.OPERva   c>  
.OPERva   c>  
.OPERva   c>   Calculating wake trajectory ...
 Calculating source influence matrix ...

 Solving BL system ...

 Side 1  free  transition at x/c =  0.4564   33
 Side 2  free  transition at x/c =  0.7233   40

   1   rms: 0.4106E-01   max: 0.3658E+00   C at   33  1
       a =  1.000      CL =  0.1782
      Cm =  0.0009     CD =  0.00662   =>   CDf =  0.00494    CDp =  0.00168

 Side 1  free  transition at x/c =  0.4374   32
 Side 2  free  transition at x/c =  0.7348   40

   2   rms: 0.3638E-02   max: -.6639E-01   C at   40  2
       a =  1.000      CL =  0.1783
      Cm =  0.0008     CD =  0.00666   =>   CDf =  0.00501    CDp =  0.00165

 Side 1  free  transition at x/c =  0.4377   32
 Side 2  free  transition at x/c =  0.7368   40

   3   rms: 0.3680E-04   max: -.4130E-03   D at   41  2
       a =  1.000      CL =  0.1783
      Cm =  0.0008     CD =  0.00666   =>   CDf =  0.00500    CDp =  0.00166
 plradd ia,ip,cpol           29          51  4.81196605E-02

 Point added to stored polar  1
 Save file unspecified or not available
 Dump file unspecified or not available

.OPERva   c>  
.OPERva   c>  
.OPERva   c>   Calculating wake trajectory ...
 Calculating source influence matrix ...

 Solving BL system ...

 Side 1  free  transition at x/c =  0.4377   32
 Side 2  free  transition at x/c =  0.7368   40

   1   rms: 0.3349E-01   max: 0.2044E+00   C at   32  1
       a =  1.200      CL =  0.2013
      Cm =  0.0008     CD =  0.00670   =>   CDf =  0.00500    CDp =  0.00170

 Side 1  free  transition at x/c =  0.4215   32
 Side 2  free  transition at x/c =  0.7537   41

   2   rms: 0.3293E-02   max: -.3862E-01   C at   32  1
       a =  1.200      CL =  0.2000
      Cm =  0.0011     CD =  0.00667   =>   CDf =  0.00498    CDp =  0.00169

 Side 1  free  transition at x/c =  0.4236   32
 Side 2  free  transition at x/c =  0.7532   41

   3   rms: 0.1582E-04   max: 0.1929E-03   D at   32  1
       a =  1.200      CL =  0.2000
      Cm =  0.0011     CD =  0.00667   =>   CDf =  0.00497    CDp =  0.00170
 plradd ia,ip,cpol           30          51  3.96398455E-02

 Point added to stored polar  1
 Save file unspecified or not available
 Dump file unspecified or not available

.OPERva   c>  
.OPERva   c>  
.OPERva   c>   Calculating wake trajectory ...
 Calculating source influence matrix ...

 Solving BL system ...

 Side 1  free  transition at x/c =  0.4236   32
 Side 2  free  transition at x/c =  0.7532   41

   1   rms: 0.3994E-01   max: 0.2992E+00   C at   32  1
       a =  1.400      CL =  0.2216
      Cm =  0.0014     CD =  0.00673   =>   CDf =  0.00497    CDp =  0.00176

 Side 1  free  transition at x/c =  0.4075   31
 Side 2  free  transition at x/c =  0.7646   41

   2   rms: 0.4403E-02   max: -.8021E-01   C at   41  2
       a =  1.400      CL =  0.2220
      Cm =  0.0013     CD =  0.00676   =>   CDf =  0.00502    CDp =  0.00173

 Side 1  free  transition at x/c =  0.4075   31
 Side 2  free  transition at x/c =  0.7671   41

   3   rms: 0.6585E-04   max: -.8302E-03   C at   41  2
       a =  1.400      CL =  0.2220
      Cm =  0.0013     CD =  0.00676   =>   CDf =  0.00502    CDp =  0.00174
 plradd ia,ip,cpol           31          51  3.96398455E-02

 Point added to stored polar  1
 Save file unspecified or not available
 Dump file unspecified or not available

.OPERva   c>  
.OPERva   c>  
.OPERva   c>   Calculating wake trajectory ...
 Calculating source influence matrix ...

 Solving BL system ...

 Side 1  free  transition at x/c =  0.4075   31
 Side 2  free  transition at x/c =  0.7671   41

   1   rms: 0.3347E-01   max: 0.2207E+00   C at   31  1
       a =  1.600      CL =  0.2449
      Cm =  0.0013     CD =  0.00681   =>   CDf =  0.00497    CDp =  0.00184

 Side 1  free  transition at x/c =  0.3905   32
 Side 2  free  transition at x/c =  0.7822   41

   2   rms: 0.4609E-02   max: 0.5153E-01   D at   32  1
       a =  1.600      CL =  0.2437
      Cm =  0.0016     CD =  0.00679   =>   CDf =  0.00501    CDp =  0.00177

 Side 1  free  transition at x/c =  0.3931   32
 Side 2  free  transition at x/c =  0.7821   41

   3   rms: 0.3234E-03   max: 0.2618E-02   D at    4  1
       a =  1.600      CL =  0.2437
      Cm =  0.0016     CD =  0.00679   =>   CDf =  0.00500    CDp =  0.00179

 Side 1  free  transition at x/c =  0.3931   32
 Side 2  free  transition at x/c =  0.7821   41

   4   rms: 0.3949E-06   max: -.2494E-05   D at    7  1
       a =  1.600      CL =  0.2437
      Cm =  0.0016     CD =  0.00679   =>   CDf =  0.00500    CDp =  0.00179
 plradd ia,ip,cpol           32          52  3.96398455E-02

 Point added to stored polar  1
 Save file unspecified or not available
 Dump file unspecified or not available

.OPERva   c>  
.OPERva   c>  
.OPERva   c>   Calculating wake trajectory ...
 Calculating source influence matrix ...

 Solving BL system ...

 Side 1  free  transition at x/c =  0.3931   32
 Side 2  free  transition at x/c =  0.7821   41

   1   rms: 0.3995E-01   max: 0.2907E+00   C at   32  1
       a =  1.800      CL =  0.2651
      Cm =  0.0018     CD =  0.00687   =>   CDf =  0.00500    CDp =  0.00188

 Side 1  free  transition at x/c =  0.3776   31
 Side 2  free  transition at x/c =  0.7939   41

   2   rms: 0.3524E-02   max: -.5990E-01   C at   41  2
       a =  1.800      CL =  0.2655
      Cm =  0.0017     CD =  0.00688   =>   CDf =  0.00504    CDp =  0.00184

 Side 1  free  transition at x/c =  0.3774   31
 Side 2  free  transition at x/c =  0.7958   41

   3   rms: 0.3462E-04   max: -.4091E-03   D at   42  2
       a =  1.800      CL =  0.2655
      Cm =  0.0018     CD =  0.00688   =>   CDf =  0.00504    CDp =  0.00184
 plradd ia,ip,cpol           33          52  3.96398455E-02

 Point added to stored polar  1
 Save file unspecified or not available
 Dump file unspecified or not available

.OPERva   c>  
.OPERva   c>  
.OPERva   c>   Calculating wake trajectory ...
 Calculating source influence matrix ...

 Solving BL system ...

 Side 1  free  transition at x/c =  0.3774   31
 Side 2  free  transition at x/c =  0.7958   41

   1   rms: 0.3426E-01   max: 0.2504E+00   C at   31  1
       a =  2.000      CL =  0.2882
      Cm =  0.0018     CD =  0.00694   =>   CDf =  0.00504    CDp =  0.00190

 Side 1  free  transition at x/c =  0.3596   31
 Side 2  free  transition at x/c =  0.8098   42

   2   rms: 0.4372E-02   max: 0.6150E-01   D at   31  1
       a =  2.000      CL =  0.2871
      Cm =  0.0020     CD =  0.00694   =>   CDf =  0.00505    CDp =  0.00188

 Side 1  free  transition at x/c =  0.3625   31
 Side 2  free  transition at x/c =  0.8103   42

   3   rms: 0.1748E-03   max: -.2229E-02   D at   31  1
       a =  2.000      CL =  0.2871
      Cm =  0.0020     CD =  0.00694   =>   CDf =  0.00503    CDp =  0.00191

 Side 1  free  transition at x/c =  0.3624   31
 Side 2  free  transition at x/c =  0.8102   42

   4   rms: 0.9425E-06   max: 0.9652E-05   D at   42  2
       a =  2.000      CL =  0.2871
      Cm =  0.0020     CD =  0.00694   =>   CDf =  0.00503    CDp =  0.00191
 plradd ia,ip,cpol           34          52  3.96398455E-02

 Point added to stored polar  1
 Save file unspecified or not available
 Dump file unspecified or not available

.OPERva   c>  
.OPERva   c>  
.OPERva   c>   Calculating wake trajectory ...
 Calculating source influence matrix ...

 Solving BL system ...

 Side 1  free  transition at x/c =  0.3624   31
 Side 2  free  transition at x/c =  0.8102   42

   1   rms: 0.4064E-01   max: -.2644E+00   D at   31  1
       a =  2.200      CL =  0.3082
      Cm =  0.0024     CD =  0.00705   =>   CDf =  0.00503    CDp =  0.00201

 Side 1  free  transition at x/c =  0.3468   30
 Side 2  free  transition at x/c =  0.8213   42

   2   rms: 0.4208E-02   max: -.6392E-01   C at   42  2
       a =  2.200      CL =  0.3088
      Cm =  0.0023     CD =  0.00703   =>   CDf =  0.00507    CDp =  0.00196

 Side 1  free  transition at x/c =  0.3465   30
 Side 2  free  transition at x/c =  0.8237   42

   3   rms: 0.4997E-04   max: -.5338E-03   C at   42  2
       a =  2.200      CL =  0.3088
      Cm =  0.0023     CD =  0.00703   =>   CDf =  0.00507    CDp =  0.00197
 plradd ia,ip,cpol           35          52  3.96398455E-02

 Point added to stored polar  1
 Save file unspecified or not available
 Dump file unspecified or not available

.OPERva   c>  
.OPERva   c>  
.OPERva   c>   Calculating wake trajectory ...
 Calculating source influence matrix ...

 Solving BL system ...

 Side 1  free  transition at x/c =  0.3465   30
 Side 2  free  transition at x/c =  0.8237   42

   1   rms: 0.3620E-01   max: 0.3195E+00   C at   30  1
       a =  2.400      CL =  0.3312
      Cm =  0.0024     CD =  0.00712   =>   CDf =  0.00506    CDp =  0.00205

 Side 1  free  transition at x/c =  0.3251   30
 Side 2  free  transition at x/c =  0.8347   43

   2   rms: 0.4445E-02   max: 0.6156E-01   D at   30  1
       a =  2.400      CL =  0.3301
      Cm =  0.0026     CD =  0.00716   =>   CDf =  0.00514    CDp =  0.00202

 Side 1  free  transition at x/c =  0.3284   30
 Side 2  free  transition at x/c =  0.8361   43

   3   rms: 0.6139E-03   max: -.9783E-02   D at   30  1
       a =  2.400      CL =  0.3302
      Cm =  0.0026     CD =  0.00715   =>   CDf =  0.00511    CDp =  0.00205

 Side 1  free  transition at x/c =  0.3280   30
 Side 2  free  transition at x/c =  0.8360   43

   4   rms: 0.7801E-05   max: -.1229E-03   D at   30  1
       a =  2.400      CL =  0.3302
      Cm =  0.0026     CD =  0.00715   =>   CDf =  0.00511    CDp =  0.00205
 plradd ia,ip,cpol           36          52  3.96398455E-02

 Point added to stored polar  1
 Save file unspecified or not available
 Dump file unspecified or not available

.OPERva   c>  
.OPERva   c>  
.OPERva   c>   Calculating wake trajectory ...
 Calculating source influence matrix ...

 Solving BL system ...

 Side 1  free  transition at x/c =  0.3280   30
 Side 2  free  transition at x/c =  0.8360   43

   1   rms: 0.4175E-01   max: -.3198E+00   D at   30  1
       a =  2.600      CL =  0.3507
      Cm =  0.0030     CD =  0.00731   =>   CDf =  0.00505    CDp =  0.00226

 Side 1  free  transition at x/c =  0.3117   30
 Side 2  free  transition at x/c =  0.8482   42

   2   rms: 0.4909E-02   max: -.4555E-01   D at   31  1
       a =  2.600      CL =  0.3517
      Cm =  0.0029     CD =  0.00724   =>   CDf =  0.00512    CDp =  0.00212

 Side 1  free  transition at x/c =  0.3125   30
 Side 2  free  transition at x/c =  0.8497   42

   3   rms: 0.1596E-03   max: 0.1338E-02   D at    4  1
       a =  2.600      CL =  0.3517
      Cm =  0.0029     CD =  0.00724   =>   CDf =  0.00512    CDp =  0.00213

 Side 1  free  transition at x/c =  0.3125   30
 Side 2  free  transition at x/c =  0.8497   42

   4   rms: 0.1422E-05   max: -.1207E-04   D at    4  1
       a =  2.600      CL =  0.3517
      Cm =  0.0029     CD =  0.00724   =>   CDf =  0.00512    CDp =  0.00213
 plradd ia,ip,cpol           37          53  3.96398455E-02

 Point added to stored polar  1
 Save file unspecified or not available
 Dump file unspecified or not available

.OPERva   c>  
.OPERva   c>  
.OPERva   c>   Calculating wake trajectory ...
 Calculating source influence matrix ...

 Solving BL system ...

 Side 1  free  transition at x/c =  0.3125   30
 Side 2  free  transition at x/c =  0.8497   42

   1   rms: 0.3978E-01   max: 0.3811E+00   C at   30  1
       a =  2.800      CL =  0.3733
      Cm =  0.0031     CD =  0.00737   =>   CDf =  0.00512    CDp =  0.00226

 Side 1  free  transition at x/c =  0.2938   29
 Side 2  free  transition at x/c =  0.8582   42

   2   rms: 0.3123E-02   max: -.5265E-01   C at   42  2
       a =  2.800      CL =  0.3732
      Cm =  0.0031     CD =  0.00741   =>   CDf =  0.00521    CDp =  0.00220

 Side 1  free  transition at x/c =  0.2941   29
 Side 2  free  transition at x/c =  0.8596   43

   3   rms: 0.1895E-02   max: -.2135E-01   D at   42  2
       a =  2.800      CL =  0.3731
      Cm =  0.0031     CD =  0.00740   =>   CDf =  0.00520    CDp =  0.00220

 Side 1  free  transition at x/c =  0.2942   29
 Side 2  free  transition at x/c =  0.8606   43

   4   rms: 0.1536E-03   max: -.2318E-02   D at   43  2
       a =  2.800      CL =  0.3731
      Cm =  0.0031     CD =  0.00740   =>   CDf =  0.00519    CDp =  0.00221

 Side 1  free  transition at x/c =  0.2942   29
 Side 2  free  transition at x/c =  0.8605   43

   5   rms: 0.6392E-06   max: -.6856E-05   D at   43  2
       a =  2.800      CL =  0.3731
      Cm =  0.0031     CD =  0.00740   =>   CDf =  0.00519    CDp =  0.00221
 plradd ia,ip,cpol           38          53  3.96398455E-02

 Point added to stored polar  1
 Save file unspecified or not available
 Dump file unspecified or not available

.OPERva   c>  
.OPERva   c>  
.OPERva   c>   Calculating wake trajectory ...
 Calculating source influence matrix ...

 Solving BL system ...

 Side 1  free  transition at x/c =  0.2942   29
 Side 2  free  transition at x/c =  0.8605   43

   1   rms: 0.3488E-01   max: 0.2305E+00   C at   29  1
       a =  3.000      CL =  0.3949
      Cm =  0.0034     CD =  0.00744   =>   CDf =  0.00519    CDp =  0.00225

 Side 1  free  transition at x/c =  0.2781   29
 Side 2  free  transition at x/c =  0.8733   43

   2   rms: 0.3542E-02   max: 0.4522E-01   D at   29  1
       a =  3.000      CL =  0.3945
      Cm =  0.0034     CD =  0.00750   =>   CDf =  0.00520    CDp =  0.00229

 Side 1  free  transition at x/c =  0.2802   29
 Side 2  free  transition at x/c =  0.8728   43

   3   rms: 0.2395E-04   max: 0.3120E-03   C at   29  1
       a =  3.000      CL =  0.3945
      Cm =  0.0034     CD =  0.00750   =>   CDf =  0.00519    CDp =  0.00230
 plradd ia,ip,cpol           39          53  3.96398455E-02

 Point added to stored polar  1
 Save file unspecified or not available
 Dump file unspecified or not available

.OPERva   c>  
.OPERva   c>  
.OPERva   c>   Calculating wake trajectory ...
 Calculating source influence matrix ...

 Solving BL system ...

 Side 1  free  transition at x/c =  0.2802   29
 Side 2  free  transition at x/c =  0.8728   43

   1   rms: 0.4044E-01   max: 0.3271E+00   C at   29  1
       a =  3.200      CL =  0.4154
      Cm =  0.0038     CD =  0.00766   =>   CDf =  0.00519    CDp =  0.00247

 Side 1  free  transition at x/c =  0.2644   28
 Side 2  free  transition at x/c =  0.8825   43

   2   rms: 0.2877E-02   max: -.4308E-01   C at   43  2
       a =  3.200      CL =  0.4158
      Cm =  0.0038     CD =  0.00765   =>   CDf =  0.00525    CDp =  0.00240

 Side 1  free  transition at x/c =  0.2642   28
 Side 2  free  transition at x/c =  0.8839   43

   3   rms: 0.2919E-04   max: -.4286E-03   D at   44  2
       a =  3.200      CL =  0.4157
      Cm =  0.0038     CD =  0.00765   =>   CDf =  0.00525    CDp =  0.00240
 plradd ia,ip,cpol           40          53  3.96398455E-02

 Point added to stored polar  1
 Save file unspecified or not available
 Dump file unspecified or not available

.OPERva   c>  
.OPERva   c>  
.OPERva   c>   Calculating wake trajectory ...
 Calculating source influence matrix ...

 Solving BL system ...

 Side 1  free  transition at x/c =  0.2642   28
 Side 2  free  transition at x/c =  0.8839   43

   1   rms: 0.3498E-01   max: 0.3025E+00   C at   28  1
       a =  3.400      CL =  0.4377
      Cm =  0.0039     CD =  0.00776   =>   CDf =  0.00525    CDp =  0.00251

 Side 1  free  transition at x/c =  0.2462   28
 Side 2  free  transition at x/c =  0.8934   44

   2   rms: 0.4370E-02   max: 0.6581E-01   D at   28  1
       a =  3.400      CL =  0.4370
      Cm =  0.0041     CD =  0.00780   =>   CDf =  0.00531    CDp =  0.00248

 Side 1  free  transition at x/c =  0.2491   28
 Side 2  free  transition at x/c =  0.8940   44

   3   rms: 0.3726E-03   max: -.5462E-02   D at   28  1
       a =  3.400      CL =  0.4370
      Cm =  0.0041     CD =  0.00780   =>   CDf =  0.00529    CDp =  0.00251

 Side 1  free  transition at x/c =  0.2488   28
 Side 2  free  transition at x/c =  0.8939   44

   4   rms: 0.1360E-05   max: 0.5791E-05   D at   44  2
       a =  3.400      CL =  0.4370
      Cm =  0.0041     CD =  0.00780   =>   CDf =  0.00529    CDp =  0.00251
 plradd ia,ip,cpol           41          53  3.96398455E-02

 Point added to stored polar  1
 Save file unspecified or not available
 Dump file unspecified or not available

.OPERva   c>  
.OPERva   c>  
.OPERva   c>   Calculating wake trajectory ...
 Calculating source influence matrix ...

 Solving BL system ...

 Side 1  free  transition at x/c =  0.2488   28
 Side 2  free  transition at x/c =  0.8939   44

   1   rms: 0.4160E-01   max: -.3208E+00   D at   28  1
       a =  3.600      CL =  0.4574
      Cm =  0.0046     CD =  0.00800   =>   CDf =  0.00529    CDp =  0.00271

 Side 1  free  transition at x/c =  0.2348   27
 Side 2  free  transition at x/c =  0.9035   44

   2   rms: 0.3653E-02   max: -.4156E-01   D at   28  1
       a =  3.600      CL =  0.4581
      Cm =  0.0044     CD =  0.00794   =>   CDf =  0.00532    CDp =  0.00262

 Side 1  free  transition at x/c =  0.2343   27
 Side 2  free  transition at x/c =  0.9044   44

   3   rms: 0.2838E-04   max: 0.3376E-03   C at   27  1
       a =  3.600      CL =  0.4581
      Cm =  0.0044     CD =  0.00794   =>   CDf =  0.00532    CDp =  0.00262
 plradd ia,ip,cpol           42          53  3.96398455E-02

 Point added to stored polar  1
 Save file unspecified or not available
 Dump file unspecified or not available

.OPERva   c>  
.OPERva   c>  
.OPERva   c>   Calculating wake trajectory ...
 Calculating source influence matrix ...

 Solving BL system ...

 Side 1  free  transition at x/c =  0.2343   27
 Side 2  free  transition at x/c =  0.9044   44

   1   rms: 0.3717E-01   max: 0.3539E+00   C at   27  1
       a =  3.800      CL =  0.4794
      Cm =  0.0048     CD =  0.00808   =>   CDf =  0.00526    CDp =  0.00282

 Side 1  free  transition at x/c =  0.2157   28
 Side 2  free  transition at x/c =  0.9126   43

   2   rms: 0.3609E-02   max: 0.4359E-01   D at   28  1
       a =  3.800      CL =  0.4787
      Cm =  0.0049     CD =  0.00814   =>   CDf =  0.00541    CDp =  0.00273

 Side 1  free  transition at x/c =  0.2177   28
 Side 2  free  transition at x/c =  0.9139   43

   3   rms: 0.2668E-03   max: -.4069E-02   D at   28  1
       a =  3.800      CL =  0.4787
      Cm =  0.0049     CD =  0.00814   =>   CDf =  0.00539    CDp =  0.00275

 Side 1  free  transition at x/c =  0.2176   28
 Side 2  free  transition at x/c =  0.9139   43

   4   rms: 0.1823E-05   max: -.1742E-04   D at   28  1
       a =  3.800      CL =  0.4787
      Cm =  0.0049     CD =  0.00814   =>   CDf =  0.00539    CDp =  0.00275
 plradd ia,ip,cpol           43          54  3.96398455E-02

 Point added to stored polar  1
 Save file unspecified or not available
 Dump file unspecified or not available

.OPERva   c>  
.OPERva   c>  
.OPERva   c>   Calculating wake trajectory ...
 Calculating source influence matrix ...

 Solving BL system ...

 Side 1  free  transition at x/c =  0.2176   28
 Side 2  free  transition at x/c =  0.9139   43

   1   rms: 0.3885E-01   max: -.2960E+00   D at   28  1
       a =  4.000      CL =  0.4990
      Cm =  0.0053     CD =  0.00838   =>   CDf =  0.00539    CDp =  0.00299

 Side 1  free  transition at x/c =  0.2038   27
 Side 2  free  transition at x/c =  0.9234   44

   2   rms: 0.4219E-02   max: -.2762E-01   D at   45  2
       a =  4.000      CL =  0.5000
      Cm =  0.0052     CD =  0.00829   =>   CDf =  0.00542    CDp =  0.00287

 Side 1  free  transition at x/c =  0.2045   27
 Side 2  free  transition at x/c =  0.9222   44

   3   rms: 0.5252E-04   max: -.8017E-03   D at   45  2
       a =  4.000      CL =  0.5000
      Cm =  0.0052     CD =  0.00829   =>   CDf =  0.00543    CDp =  0.00286
 plradd ia,ip,cpol           44          54  3.96398455E-02

 Point added to stored polar  1
 Save file unspecified or not available
 Dump file unspecified or not available

.OPERva   c>  
.OPERva   c>  
.OPERva   c>   Calculating wake trajectory ...
 Calculating source influence matrix ...

 Solving BL system ...

 Side 1  free  transition at x/c =  0.2045   27
 Side 2  free  transition at x/c =  0.9222   44

   1   rms: 0.4026E-01   max: 0.3828E+00   C at   27  1
       a =  4.200      CL =  0.5211
      Cm =  0.0055     CD =  0.00847   =>   CDf =  0.00543    CDp =  0.00304

 Side 1  free  transition at x/c =  0.1873   26
 Side 2  free  transition at x/c =  0.9300   44

   2   rms: 0.2003E-02   max: -.2218E-01   C at   44  2
       a =  4.200      CL =  0.5206
      Cm =  0.0056     CD =  0.00852   =>   CDf =  0.00550    CDp =  0.00301

 Side 1  free  transition at x/c =  0.1875   26
 Side 2  free  transition at x/c =  0.9308   44

   3   rms: 0.1887E-04   max: -.2424E-03   D at   45  2
       a =  4.200      CL =  0.5206
      Cm =  0.0056     CD =  0.00852   =>   CDf =  0.00550    CDp =  0.00302
 plradd ia,ip,cpol           45          54  3.96398455E-02

 Point added to stored polar  1
 Save file unspecified or not available
 Dump file unspecified or not available

.OPERva   c>  
.OPERva   c>  
.OPERva   c>   Calculating wake trajectory ...
 Calculating source influence matrix ...

 Solving BL system ...

 Side 1  free  transition at x/c =  0.1875   26
 Side 2  free  transition at x/c =  0.9308   44

   1   rms: 0.3387E-01   max: 0.2384E+00   C at   26  1
       a =  4.400      CL =  0.5420
      Cm =  0.0059     CD =  0.00864   =>   CDf =  0.00550    CDp =  0.00315

 Side 1  free  transition at x/c =  0.1736   26
 Side 2  free  transition at x/c =  0.9381   44

   2   rms: 0.3703E-02   max: 0.3828E-01   D at   26  1
       a =  4.400      CL =  0.5411
      Cm =  0.0061     CD =  0.00869   =>   CDf =  0.00557    CDp =  0.00313

 Side 1  free  transition at x/c =  0.1751   26
 Side 2  free  transition at x/c =  0.9393   44

   3   rms: 0.5361E-04   max: 0.5732E-03   C at   26  1
       a =  4.400      CL =  0.5411
      Cm =  0.0061     CD =  0.00870   =>   CDf =  0.00555    CDp =  0.00315
 plradd ia,ip,cpol           46          54  3.96398455E-02

 Point added to stored polar  1
 Save file unspecified or not available
 Dump file unspecified or not available

.OPERva   c>  
.OPERva   c>  
.OPERva   c>   Calculating wake trajectory ...
 Calculating source influence matrix ...

 Solving BL system ...

 Side 1  free  transition at x/c =  0.1751   26
 Side 2  free  transition at x/c =  0.9393   44

   1   rms: 0.4037E-01   max: 0.3376E+00   C at   26  1
       a =  4.600      CL =  0.5605
      Cm =  0.0067     CD =  0.00894   =>   CDf =  0.00555    CDp =  0.00339

 Side 1  free  transition at x/c =  0.1610   25
 Side 2  free  transition at x/c =  0.9468   45

   2   rms: 0.2770E-02   max: 0.2674E-01   C at   25  1
       a =  4.600      CL =  0.5614
      Cm =  0.0065     CD =  0.00892   =>   CDf =  0.00562    CDp =  0.00330

 Side 1  free  transition at x/c =  0.1603   25
 Side 2  free  transition at x/c =  0.9462   45

   3   rms: 0.7966E-04   max: -.1156E-02   D at   46  2
       a =  4.600      CL =  0.5614
      Cm =  0.0065     CD =  0.00892   =>   CDf =  0.00562    CDp =  0.00329
 plradd ia,ip,cpol           47          54  3.96398455E-02

 Point added to stored polar  1
 Save file unspecified or not available
 Dump file unspecified or not available

.OPERva   c>  
.OPERva   c>  
.OPERva   c>   Calculating wake trajectory ...
 Calculating source influence matrix ...

 Solving BL system ...

 Side 1  free  transition at x/c =  0.1603   25
 Side 2  free  transition at x/c =  0.9462   45

   1   rms: 0.3876E-01   max: 0.3615E+00   C at   25  1
       a =  4.800      CL =  0.5843
      Cm =  0.0065     CD =  0.00909   =>   CDf =  0.00562    CDp =  0.00347

 Side 1  free  transition at x/c =  0.1447   25
 Side 2  free  transition at x/c =  0.9524   45

   2   rms: 0.2462E-02   max: 0.3685E-01   D at   25  1
       a =  4.800      CL =  0.5835
      Cm =  0.0066     CD =  0.00917   =>   CDf =  0.00571    CDp =  0.00346

 Side 1  free  transition at x/c =  0.1457   25
 Side 2  free  transition at x/c =  0.9525   45

   3   rms: 0.1471E-03   max: -.2275E-02   D at   25  1
       a =  4.800      CL =  0.5835
      Cm =  0.0066     CD =  0.00917   =>   CDf =  0.00570    CDp =  0.00347

 Side 1  free  transition at x/c =  0.1456   25
 Side 2  free  transition at x/c =  0.9525   45

   4   rms: 0.8295E-06   max: -.6807E-05   D at   25  1
       a =  4.800      CL =  0.5835
      Cm =  0.0066     CD =  0.00917   =>   CDf =  0.00570    CDp =  0.00347
 plradd ia,ip,cpol           48          54  3.96398455E-02

 Point added to stored polar  1
 Save file unspecified or not available
 Dump file unspecified or not available

.OPERva   c>  
.OPERva   c>  
.OPERva   c>   Calculating wake trajectory ...
 Calculating source influence matrix ...

 Solving BL system ...

 Side 1  free  transition at x/c =  0.1456   25
 Side 2  free  transition at x/c =  0.9525   45

   1   rms: 0.4356E-01   max: -.3712E+00   D at   25  1
       a =  5.000      CL =  0.6050
      Cm =  0.0067     CD =  0.00950   =>   CDf =  0.00570    CDp =  0.00380

 Side 1  free  transition at x/c =  0.1339   24
 Side 2  free  transition at x/c =  0.9583   45

   2   rms: 0.4404E-02   max: -.5094E-01   D at   25  1
       a =  5.000      CL =  0.6052
      Cm =  0.0068     CD =  0.00940   =>   CDf =  0.00575    CDp =  0.00365

 Side 1  free  transition at x/c =  0.1333   24
 Side 2  free  transition at x/c =  0.9589   45

   3   rms: 0.7297E-04   max: 0.9417E-03   C at   24  1
       a =  5.000      CL =  0.6052
      Cm =  0.0068     CD =  0.00940   =>   CDf =  0.00576    CDp =  0.00364
 plradd ia,ip,cpol           49          54  3.96398455E-02

 Point added to stored polar  1
 Save file unspecified or not available
 Dump file unspecified or not available

.OPERva   c>  
.OPERva   c>  
.OPERva   c>   Calculating wake trajectory ...
 Calculating source influence matrix ...

 Solving BL system ...

 Side 1  free  transition at x/c =  0.1333   24
 Side 2  free  transition at x/c =  0.9589   45

   1   rms: 0.4024E-01   max: 0.3923E+00   C at   24  1
       a =  5.200      CL =  0.6256
      Cm =  0.0072     CD =  0.00965   =>   CDf =  0.00568    CDp =  0.00397

 Side 1  free  transition at x/c =  0.1200   25
 Side 2  free  transition at x/c =  0.9646   44

   2   rms: 0.3892E-02   max: -.2441E-01   D at   44  2
       a =  5.200      CL =  0.6243
      Cm =  0.0074     CD =  0.00968   =>   CDf =  0.00584    CDp =  0.00384

 Side 1  free  transition at x/c =  0.1190   24
 Side 2  free  transition at x/c =  0.9658   44

   3   rms: 0.7752E-03   max: -.9355E-02   C at   24  1
       a =  5.200      CL =  0.6244
      Cm =  0.0074     CD =  0.00968   =>   CDf =  0.00584    CDp =  0.00384

 Side 1  free  transition at x/c =  0.1191   24
 Side 2  free  transition at x/c =  0.9658   44

   4   rms: 0.1070E-05   max: -.6978E-05   C at   44  2
       a =  5.200      CL =  0.6244
      Cm =  0.0074     CD =  0.00968   =>   CDf =  0.00584    CDp =  0.00384
 plradd ia,ip,cpol           50          55  3.24307084E-02

 Point added to stored polar  1
 Save file unspecified or not available
 Dump file unspecified or not available

.OPERva   c>  
.OPERva   c>  
.OPERva   c>   Calculating wake trajectory ...
 Calculating source influence matrix ...

 Solving BL system ...

 Side 1  free  transition at x/c =  0.1191   24
 Side 2  free  transition at x/c =  0.9658   44

   1   rms: 0.3131E-01   max: 0.1009E+00   C at   44  2
       a =  5.400      CL =  0.6437
      Cm =  0.0082     CD =  0.00984   =>   CDf =  0.00584    CDp =  0.00400

 Side 1  free  transition at x/c =  0.1121   24
 Side 2  free  transition at x/c =  0.9735   45

   2   rms: 0.1269E-01   max: 0.1211E+00   C at   45  2
       a =  5.400      CL =  0.6470
      Cm =  0.0074     CD =  0.00988   =>   CDf =  0.00588    CDp =  0.00401

 Side 1  free  transition at x/c =  0.1110   24
 Side 2  free  transition at x/c =  0.9705   45

   3   rms: 0.8659E-03   max: -.1174E-01   D at   46  2
       a =  5.400      CL =  0.6474
      Cm =  0.0073     CD =  0.00990   =>   CDf =  0.00589    CDp =  0.00401

 Side 1  free  transition at x/c =  0.1110   24
 Side 2  free  transition at x/c =  0.9703   45

   4   rms: 0.1306E-04   max: 0.1341E-03   T at   45  2
       a =  5.400      CL =  0.6474
[...]
 Side 2 forced transition at x/c =  1.0000   39

   3   rms: 0.1280E-02   max: -.1022E-01   T at   24  1
       a = 23.800      CL =  0.9423
      Cm = -0.0790     CD =  0.26110   =>   CDf =  0.00181    CDp =  0.25929

 Side 1  free  transition at x/c =  0.0283   24
 Side 2 forced transition at x/c =  1.0000   39

   4   rms: 0.9232E-04   max: 0.4608E-03   C at   39  2
       a = 23.800      CL =  0.9423
      Cm = -0.0790     CD =  0.26116   =>   CDf =  0.00181    CDp =  0.25934
 plradd ia,ip,cpol          136          62  6.78020238E-04

 Point added to stored polar  1
 Save file unspecified or not available
 Dump file unspecified or not available

.OPERva   c>  
.OPERva   c>  
.OPERva   c>   Calculating wake trajectory ...
 Calculating source influence matrix ...

 Solving BL system ...

 Side 1  free  transition at x/c =  0.0283   24
 Side 2 forced transition at x/c =  1.0000   39

   1   rms: 0.1730E-01   max: 0.8837E-01   T at   24  1   RLX: 0.242
       a = 24.000      CL =  0.9433
      Cm = -0.0794     CD =  0.26165   =>   CDf =  0.00181    CDp =  0.25984

 Side 1  free  transition at x/c =  0.0282   24
 Side 2 forced transition at x/c =  1.0000   39

   2   rms: 0.1330E-01   max: 0.6282E-01   T at   24  1
       a = 24.000      CL =  0.9500
      Cm = -0.0805     CD =  0.26300   =>   CDf =  0.00181    CDp =  0.26119

 Side 1  free  transition at x/c =  0.0280   24
 Side 2 forced transition at x/c =  1.0000   39

   3   rms: 0.6291E-03   max: -.4719E-02   T at   24  1
       a = 24.000      CL =  0.9500
      Cm = -0.0805     CD =  0.26259   =>   CDf =  0.00181    CDp =  0.26079

 Side 1  free  transition at x/c =  0.0280   24
 Side 2 forced transition at x/c =  1.0000   39

   4   rms: 0.4467E-04   max: 0.2421E-03   C at   39  2
       a = 24.000      CL =  0.9500
      Cm = -0.0805     CD =  0.26262   =>   CDf =  0.00181    CDp =  0.26082
 plradd ia,ip,cpol          137          62  6.78020238E-04

 Point added to stored polar  1
 Save file unspecified or not available
 Dump file unspecified or not available

.OPERva   c>  
.OPERva   c>  
.OPERva   c>   Calculating wake trajectory ...
 Calculating source influence matrix ...

 Solving BL system ...

 Side 1  free  transition at x/c =  0.0280   24
 Side 2 forced transition at x/c =  1.0000   39

   1   rms: 0.1850E-01   max: 0.7152E-01   T at   24  1   RLX: 0.240
       a = 24.200      CL =  0.9511
      Cm = -0.0808     CD =  0.26304   =>   CDf =  0.00160    CDp =  0.26144

 Side 1  free  transition at x/c =  0.0279   25
 Side 2 forced transition at x/c =  1.0000   38

   2   rms: 0.9433E-01   max: 0.1287E+01   D at    2  1   RLX: 0.834
       a = 24.200      CL =  0.9568
      Cm = -0.0817     CD =  0.26403   =>   CDf =  0.00180    CDp =  0.26223

 Side 1  free  transition at x/c =  0.0278   25
 Side 2 forced transition at x/c =  1.0000   38

   3   rms: 0.3296E-02   max: 0.2374E-01   D at    4  1
       a = 24.200      CL =  0.9577
      Cm = -0.0819     CD =  0.26422   =>   CDf =  0.00179    CDp =  0.26242

 Side 1  free  transition at x/c =  0.0277   25
 Side 2 forced transition at x/c =  1.0000   38

   4   rms: 0.1377E-03   max: -.7106E-03   D at   25  1
       a = 24.200      CL =  0.9577
      Cm = -0.0819     CD =  0.26407   =>   CDf =  0.00179    CDp =  0.26228

 Side 1  free  transition at x/c =  0.0277   25
 Side 2 forced transition at x/c =  1.0000   38

   5   rms: 0.3275E-05   max: 0.1782E-04   C at   38  2
       a = 24.200      CL =  0.9577
      Cm = -0.0819     CD =  0.26407   =>   CDf =  0.00179    CDp =  0.26228
 plradd ia,ip,cpol          138          63  6.78020238E-04

 Point added to stored polar  1
 Save file unspecified or not available
 Dump file unspecified or not available

.OPERva   c>  
.OPERva   c>  
.OPERva   c>   Calculating wake trajectory ...
 Calculating source influence matrix ...

 Solving BL system ...

 Side 1  free  transition at x/c =  0.0277   25
 Side 2 forced transition at x/c =  1.0000   38

   1   rms: 0.1717E-01   max: 0.8105E-01   T at   25  1   RLX: 0.238
       a = 24.400      CL =  0.9586
      Cm = -0.0823     CD =  0.26455   =>   CDf =  0.00179    CDp =  0.26275

 Side 1  free  transition at x/c =  0.0276   25
 Side 2 forced transition at x/c =  1.0000   38

   2   rms: 0.1334E-01   max: 0.5828E-01   T at   25  1
       a = 24.400      CL =  0.9653
      Cm = -0.0834     CD =  0.26588   =>   CDf =  0.00179    CDp =  0.26409

 Side 1  free  transition at x/c =  0.0274   25
 Side 2 forced transition at x/c =  1.0000   38

   3   rms: 0.1860E-02   max: -.1598E-01   D at   25  1
       a = 24.400      CL =  0.9653
      Cm = -0.0834     CD =  0.26540   =>   CDf =  0.00178    CDp =  0.26362

 Side 1  free  transition at x/c =  0.0274   25
 Side 2 forced transition at x/c =  1.0000   38

   4   rms: 0.1342E-03   max: 0.6718E-03   C at   38  2
       a = 24.400      CL =  0.9654
      Cm = -0.0834     CD =  0.26548   =>   CDf =  0.00178    CDp =  0.26370

 Side 1  free  transition at x/c =  0.0274   25
 Side 2 forced transition at x/c =  1.0000   38

   5   rms: 0.7332E-05   max: -.4687E-04   D at   50  2
       a = 24.400      CL =  0.9654
      Cm = -0.0834     CD =  0.26550   =>   CDf =  0.00178    CDp =  0.26371
 plradd ia,ip,cpol          139          63  6.78020238E-04

 Point added to stored polar  1
 Save file unspecified or not available
 Dump file unspecified or not available

.OPERva   c>  
.OPERva   c>  
.OPERva   c>   Calculating wake trajectory ...
 Calculating source influence matrix ...

 Solving BL system ...

 Side 1  free  transition at x/c =  0.0274   25
 Side 2 forced transition at x/c =  1.0000   38

   1   rms: 0.1887E-01   max: 0.6965E-01   T at   25  1   RLX: 0.236
       a = 24.600      CL =  0.9664
      Cm = -0.0837     CD =  0.26588   =>   CDf =  0.00178    CDp =  0.26410

 Side 1  free  transition at x/c =  0.0274   25
 Side 2 forced transition at x/c =  1.0000   38

   2   rms: 0.1466E-01   max: 0.5013E-01   T at   25  1
       a = 24.600      CL =  0.9735
      Cm = -0.0848     CD =  0.26699   =>   CDf =  0.00178    CDp =  0.26520

 Side 1  free  transition at x/c =  0.0272   25
 Side 2 forced transition at x/c =  1.0000   38

   3   rms: 0.1595E-02   max: -.1342E-01   D at   25  1
       a = 24.600      CL =  0.9735
      Cm = -0.0847     CD =  0.26658   =>   CDf =  0.00178    CDp =  0.26481

 Side 1  free  transition at x/c =  0.0272   25
 Side 2 forced transition at x/c =  1.0000   38

   4   rms: 0.1140E-03   max: 0.5739E-03   C at   38  2
       a = 24.600      CL =  0.9735
      Cm = -0.0847     CD =  0.26666   =>   CDf =  0.00178    CDp =  0.26489

 Side 1  free  transition at x/c =  0.0272   25
 Side 2 forced transition at x/c =  1.0000   38

   5   rms: 0.5968E-05   max: -.3793E-04   D at   50  2
       a = 24.600      CL =  0.9735
      Cm = -0.0847     CD =  0.26668   =>   CDf =  0.00178    CDp =  0.26490
 plradd ia,ip,cpol          140          63  6.78020238E-04

 Point added to stored polar  1
 Save file unspecified or not available
 Dump file unspecified or not available

.OPERva   c>  
.OPERva   c>  
.OPERva   c>   Calculating wake trajectory ...
 Calculating source influence matrix ...

 Solving BL system ...

 Side 1  free  transition at x/c =  0.0272   25
 Side 2 forced transition at x/c =  1.0000   38

   1   rms: 0.1979E-01   max: 0.6176E-01   T at   25  1   RLX: 0.235
       a = 24.800      CL =  0.9746
      Cm = -0.0851     CD =  0.26702   =>   CDf =  0.00178    CDp =  0.26524

 Side 1  free  transition at x/c =  0.0271   25
 Side 2 forced transition at x/c =  1.0000   38

   2   rms: 0.1529E-01   max: 0.4539E-01   T at   25  1
       a = 24.800      CL =  0.9819
      Cm = -0.0861     CD =  0.26801   =>   CDf =  0.00177    CDp =  0.26624

 Side 1  free  transition at x/c =  0.0270   25
 Side 2 forced transition at x/c =  1.0000   38

   3   rms: 0.7504E-03   max: -.5887E-02   D at   25  1
       a = 24.800      CL =  0.9819
      Cm = -0.0861     CD =  0.26769   =>   CDf =  0.00177    CDp =  0.26592

 Side 1  free  transition at x/c =  0.0270   25
 Side 2 forced transition at x/c =  1.0000   38

   4   rms: 0.5327E-04   max: 0.2750E-03   C at   38  2
       a = 24.800      CL =  0.9819
      Cm = -0.0861     CD =  0.26773   =>   CDf =  0.00177    CDp =  0.26597
 plradd ia,ip,cpol          141          63  1.31072709E-04

 Point added to stored polar  1
 Save file unspecified or not available
 Dump file unspecified or not available

.OPERva   c>  
.OPERva   c>  
.OPERva   c>   Calculating wake trajectory ...
 Calculating source influence matrix ...

 Solving BL system ...

 Side 1  free  transition at x/c =  0.0270   25
 Side 2 forced transition at x/c =  1.0000   38

   1   rms: 0.2004E-01   max: 0.6022E-01   T at   25  1   RLX: 0.233
       a = 25.000      CL =  0.9829
      Cm = -0.0864     CD =  0.26805   =>   CDf =  0.00177    CDp =  0.26629

 Side 1  free  transition at x/c =  0.0269   25
 Side 2 forced transition at x/c =  1.0000   38

   2   rms: 0.1533E-01   max: 0.4699E-01   T at   25  1
       a = 25.000      CL =  0.9902
      Cm = -0.0875     CD =  0.26903   =>   CDf =  0.00177    CDp =  0.26726

 Side 1  free  transition at x/c =  0.0268   25
 Side 2 forced transition at x/c =  1.0000   38

   3   rms: 0.8239E-03   max: 0.7489E-02   T at   25  1
       a = 25.000      CL =  0.9901
      Cm = -0.0875     CD =  0.26882   =>   CDf =  0.00176    CDp =  0.26706

 Side 1  free  transition at x/c =  0.0268   25
 Side 2 forced transition at x/c =  1.0000   38

   4   rms: 0.2438E-04   max: -.1318E-03   C at   38  2
       a = 25.000      CL =  0.9901
      Cm = -0.0875     CD =  0.26880   =>   CDf =  0.00176    CDp =  0.26705
 plradd ia,ip,cpol          142          63  1.31072709E-04

 Point added to stored polar  1
 Save file unspecified or not available
 Dump file unspecified or not available

.OPERva   c>  
.OPERva   c>  
.OPERva   c>  
        airfoil                    Re           Mach       Ncrit  XtripT  XtripB     file
       ------------------------  ------------  ----------  -----  ------  ------    -------------------
 >  1  NACA 21015                1.000e6       0.100        9.00   1.000   1.000    

Enter polar output filename   s>  
.OPERva   c>  
 ==============================================================
 Polar  1
  
       XFOIL         Version 6.99
  
 Calculated polar for: NACA 21015                                      
  
 1 1 Reynolds number fixed          Mach number fixed         
  
 xtrf =   1.000 (top)        1.000 (bottom)  
 Mach =   0.100     Re =     1.000 e 6     Ncrit =   9.000
  
   alpha    CL        CD       CDp       CM     Top_Xtr  Bot_Xtr
  ------ -------- --------- --------- -------- -------- --------
  -5.000  -0.4430   0.01077   0.00481  -0.0120   0.9093   0.0206
  -4.800  -0.4225   0.01058   0.00460  -0.0114   0.8981   0.0215
  -4.600  -0.4017   0.01042   0.00440  -0.0109   0.8868   0.0224
  -4.400  -0.3805   0.01026   0.00421  -0.0105   0.8758   0.0231
  -4.200  -0.3596   0.01013   0.00403  -0.0100   0.8625   0.0236
  -4.000  -0.3392   0.00986   0.00370  -0.0095   0.8506   0.0247
  -3.800  -0.3185   0.00967   0.00346  -0.0090   0.8365   0.0260
  -3.600  -0.2973   0.00954   0.00328  -0.0086   0.8233   0.0273
  -3.400  -0.2758   0.00942   0.00312  -0.0082   0.8083   0.0287
  -3.200  -0.2543   0.00934   0.00298  -0.0079   0.7941   0.0299
  -3.000  -0.2330   0.00919   0.00279  -0.0075   0.7791   0.0339
  -2.800  -0.2119   0.00906   0.00262  -0.0071   0.7637   0.0425
  -2.400  -0.1837   0.00729   0.00192  -0.0045   0.7339   0.3204
  -2.200  -0.1641   0.00701   0.00182  -0.0039   0.7181   0.3763
  -2.000  -0.1436   0.00686   0.00175  -0.0035   0.7023   0.4135
  -1.800  -0.1229   0.00672   0.00170  -0.0031   0.6863   0.4486
  -1.600  -0.1016   0.00663   0.00165  -0.0028   0.6713   0.4759
  -1.400  -0.0801   0.00659   0.00162  -0.0025   0.6539   0.4995
  -1.200  -0.0585   0.00652   0.00159  -0.0022   0.6392   0.5226
  -1.000  -0.0374   0.00648   0.00157  -0.0019   0.6221   0.5481
  -0.800  -0.0160   0.00640   0.00156  -0.0016   0.6073   0.5762
  -0.600   0.0054   0.00641   0.00155  -0.0013   0.5895   0.5963
  -0.200   0.0482   0.00637   0.00155  -0.0006   0.5550   0.6441
   0.000   0.0696   0.00638   0.00155  -0.0003   0.5350   0.6627
   0.200   0.0918   0.00643   0.00156  -0.0002   0.5162   0.6762
   0.400   0.1130   0.00647   0.00158   0.0002   0.4962   0.6925
   0.600   0.1350   0.00654   0.00160   0.0004   0.4756   0.7071
   0.800   0.1564   0.00657   0.00163   0.0007   0.4565   0.7233
   1.000   0.1783   0.00666   0.00166   0.0008   0.4377   0.7368
   1.200   0.2000   0.00667   0.00170   0.0011   0.4236   0.7532
   1.400   0.2220   0.00676   0.00174   0.0013   0.4075   0.7671
   1.600   0.2437   0.00679   0.00179   0.0016   0.3931   0.7821
   1.800   0.2655   0.00688   0.00184   0.0018   0.3774   0.7958
   2.000   0.2871   0.00694   0.00191   0.0020   0.3624   0.8102
   2.200   0.3088   0.00703   0.00197   0.0023   0.3465   0.8237
   2.400   0.3302   0.00715   0.00205   0.0026   0.3280   0.8360
   2.600   0.3517   0.00724   0.00213   0.0029   0.3125   0.8497
   2.800   0.3731   0.00740   0.00221   0.0031   0.2942   0.8605
   3.000   0.3945   0.00750   0.00230   0.0034   0.2802   0.8728
   3.200   0.4157   0.00765   0.00240   0.0038   0.2642   0.8839
   3.400   0.4370   0.00780   0.00251   0.0041   0.2488   0.8939
   3.600   0.4581   0.00794   0.00262   0.0044   0.2343   0.9044
   3.800   0.4787   0.00814   0.00275   0.0049   0.2176   0.9139
   4.000   0.5000   0.00829   0.00286   0.0052   0.2045   0.9222
   4.200   0.5206   0.00852   0.00302   0.0056   0.1875   0.9308
   4.400   0.5411   0.00870   0.00315   0.0061   0.1751   0.9393
   4.600   0.5614   0.00892   0.00329   0.0065   0.1603   0.9462
   4.800   0.5835   0.00917   0.00347   0.0066   0.1456   0.9525
   5.000   0.6052   0.00940   0.00364   0.0068   0.1333   0.9589
   5.200   0.6244   0.00968   0.00384   0.0074   0.1191   0.9658
   5.400   0.6474   0.00990   0.00401   0.0073   0.1110   0.9703
   5.600   0.6736   0.01020   0.00423   0.0064   0.1000   0.9734
   5.800   0.7001   0.01040   0.00442   0.0055   0.0962   0.9763
   6.000   0.7264   0.01068   0.00463   0.0045   0.0913   0.9792
   6.200   0.7528   0.01099   0.00491   0.0036   0.0851   0.9818
   6.400   0.7793   0.01120   0.00511   0.0026   0.0835   0.9843
   6.600   0.8044   0.01138   0.00530   0.0020   0.0825   0.9872
   6.800   0.8304   0.01157   0.00550   0.0012   0.0814   0.9891
   7.000   0.8592   0.01179   0.00571  -0.0003   0.0801   0.9900
   7.200   0.8877   0.01202   0.00594  -0.0017   0.0788   0.9912
   7.400   0.9156   0.01226   0.00617  -0.0031   0.0775   0.9924
   7.600   0.9430   0.01252   0.00641  -0.0043   0.0761   0.9939
   7.800   0.9701   0.01280   0.00669  -0.0055   0.0746   0.9954
   8.000   0.9962   0.01313   0.00703  -0.0065   0.0730   0.9970
   8.200   1.0218   0.01353   0.00746  -0.0074   0.0713   0.9985
   8.400   1.0465   0.01400   0.00798  -0.0082   0.0700   0.9997
   8.600   1.0637   0.01420   0.00819  -0.0073   0.0698   1.0000
   8.800   1.0767   0.01438   0.00839  -0.0056   0.0696   1.0000
   9.000   1.0896   0.01457   0.00860  -0.0038   0.0694   1.0000
   9.200   1.1023   0.01478   0.00883  -0.0020   0.0691   1.0000
   9.400   1.1150   0.01500   0.00907  -0.0003   0.0689   1.0000
   9.600   1.1278   0.01522   0.00932   0.0015   0.0685   1.0000
   9.800   1.1409   0.01545   0.00957   0.0032   0.0681   1.0000
  10.000   1.1544   0.01569   0.00983   0.0048   0.0677   1.0000
  10.200   1.1678   0.01595   0.01010   0.0063   0.0672   1.0000
  10.400   1.1812   0.01623   0.01041   0.0079   0.0668   1.0000
  10.600   1.1948   0.01653   0.01074   0.0093   0.0664   1.0000
  10.800   1.2087   0.01685   0.01109   0.0107   0.0660   1.0000
  11.000   1.2226   0.01719   0.01145   0.0120   0.0656   1.0000
  11.200   1.2355   0.01754   0.01183   0.0135   0.0652   1.0000
  11.400   1.2473   0.01790   0.01221   0.0151   0.0648   1.0000
  11.600   1.2592   0.01828   0.01263   0.0167   0.0644   1.0000
  11.800   1.2713   0.01869   0.01307   0.0182   0.0640   1.0000
  12.000   1.2834   0.01913   0.01354   0.0195   0.0637   1.0000
  12.200   1.2957   0.01960   0.01404   0.0208   0.0633   1.0000
  12.400   1.3073   0.02011   0.01458   0.0221   0.0628   1.0000
  12.600   1.3186   0.02067   0.01517   0.0233   0.0624   1.0000
  12.800   1.3292   0.02129   0.01583   0.0245   0.0620   1.0000
  13.000   1.3390   0.02200   0.01657   0.0258   0.0615   1.0000
  13.200   1.3476   0.02279   0.01741   0.0270   0.0610   1.0000
  13.400   1.3548   0.02371   0.01838   0.0283   0.0605   1.0000
  13.600   1.3605   0.02479   0.01952   0.0296   0.0599   1.0000
  13.800   1.3643   0.02608   0.02088   0.0309   0.0593   1.0000
  14.000   1.3650   0.02764   0.02254   0.0322   0.0587   1.0000
  14.200   1.3633   0.02951   0.02452   0.0336   0.0581   1.0000
  14.400   1.3735   0.03039   0.02545   0.0341   0.0581   1.0000
  14.600   1.3834   0.03134   0.02644   0.0344   0.0579   1.0000
  14.800   1.3931   0.03231   0.02746   0.0347   0.0578   1.0000
  15.000   1.4020   0.03338   0.02857   0.0350   0.0577   1.0000
  15.200   1.4098   0.03456   0.02980   0.0353   0.0576   1.0000
  15.400   1.4165   0.03588   0.03118   0.0355   0.0574   1.0000
  15.600   1.4230   0.03725   0.03262   0.0356   0.0573   1.0000
  15.800   1.4284   0.03876   0.03419   0.0357   0.0571   1.0000
  16.000   1.4338   0.04030   0.03580   0.0357   0.0570   1.0000
  16.200   1.4378   0.04202   0.03758   0.0356   0.0568   1.0000
  16.400   1.4418   0.04374   0.03937   0.0355   0.0566   1.0000
  16.600   1.4440   0.04567   0.04136   0.0352   0.0565   1.0000
  16.800   1.4463   0.04764   0.04340   0.0349   0.0563   1.0000
  17.000   1.4475   0.04979   0.04562   0.0345   0.0561   1.0000
  17.200   1.4484   0.05202   0.04792   0.0340   0.0559   1.0000
  17.400   1.4486   0.05437   0.05035   0.0334   0.0557   1.0000
  17.600   1.4476   0.05691   0.05296   0.0326   0.0554   1.0000
  17.800   1.4468   0.05946   0.05559   0.0318   0.0552   1.0000
  18.000   1.4438   0.06230   0.05851   0.0308   0.0550   1.0000
  18.200   1.4417   0.06506   0.06133   0.0299   0.0548   1.0000
  18.400   1.4371   0.06824   0.06460   0.0287   0.0546   1.0000
  18.600   1.4338   0.07126   0.06770   0.0275   0.0543   1.0000
  18.800   1.4277   0.07476   0.07128   0.0260   0.0541   1.0000
  19.000   1.4233   0.07804   0.07463   0.0246   0.0539   1.0000
  19.200   1.4165   0.08175   0.07841   0.0229   0.0536   1.0000
  19.400   1.4113   0.08521   0.08194   0.0213   0.0533   1.0000
  19.600   1.4034   0.08911   0.08591   0.0195   0.0530   1.0000
  19.800   1.3969   0.09280   0.08967   0.0177   0.0528   1.0000
  20.000   1.3872   0.09709   0.09403   0.0156   0.0525   1.0000
  20.200   1.3786   0.10120   0.09822   0.0135   0.0523   1.0000
  20.400   1.3665   0.10595   0.10304   0.0111   0.0520   1.0000
  20.600   1.3566   0.11037   0.10753   0.0088   0.0518   1.0000
  20.800   1.3427   0.11552   0.11276   0.0061   0.0516   1.0000
  21.000   1.3308   0.12028   0.11759   0.0035   0.0513   1.0000
  21.200   1.3139   0.12597   0.12336   0.0003   0.0510   1.0000
  21.400   1.2969   0.13180   0.12927  -0.0030   0.0508   1.0000
  21.600   1.2787   0.13795   0.13550  -0.0065   0.0504   1.0000
  21.800   1.2446   0.14719   0.14486  -0.0120   0.0500   1.0000
  23.200   0.9429   0.24655   0.24471  -0.0703   0.0331   1.0000
  23.400   0.9505   0.24799   0.24615  -0.0717   0.0328   1.0000
  23.800   0.9423   0.26116   0.25934  -0.0790   0.0283   1.0000
  24.000   0.9500   0.26262   0.26082  -0.0805   0.0280   1.0000
  24.200   0.9577   0.26407   0.26228  -0.0819   0.0277   1.0000
  24.400   0.9654   0.26550   0.26371  -0.0834   0.0274   1.0000
  24.600   0.9735   0.26668   0.26490  -0.0847   0.0272   1.0000
  24.800   0.9819   0.26773   0.26597  -0.0861   0.0270   1.0000
  25.000   0.9901   0.26880   0.26705  -0.0875   0.0268   1.0000

.OPERva   c>  
 XFOIL   c>  