
 ===================================================
  XFOIL Version 6.99
  Copyright (C) 2000   Mark Drela, Harold Youngren

  This software comes with ABSOLUTELY NO WARRANTY,
    subject to the GNU General Public License.

  Caveat computor
 ===================================================

 File  xfoil.def  not found

   QUIT    Exit program

  .OPER    Direct operating point(s)
  .MDES    Complex mapping design routine
  .QDES    Surface speed design routine
  .GDES    Geometry design routine

   SAVE f  Write airfoil to labeled coordinate file
   PSAV f  Write airfoil to plain coordinate file
   ISAV f  Write airfoil to ISES coordinate file
   MSAV f  Write airfoil to MSES coordinate file
   REVE    Reverse written-airfoil node ordering

   LOAD f  Read buffer airfoil from coordinate file
   NACA i  Set NACA 4,5-digit airfoil and buffer airfoil
   INTE    Set buffer airfoil by interpolating two airfoils
   NORM    Buffer airfoil normalization toggle
   XYCM rr Change CM reference location, currently  0.25000 0.00000

   BEND    Display structural properties of current airfoil

   PCOP    Set current-airfoil panel nodes directly from buffer airfoil points
   PANE    Set current-airfoil panel nodes ( 160 ) based on curvature
  .PPAR    Show/change paneling

  .PLOP    Plotting options

   WDEF f  Write  current-settings file
   RDEF f  Reread current-settings file
   NAME s  Specify new airfoil name
   NINC    Increment name version number

   Z       Zoom    | (available in all menus)
   U       Unzoom  | 

 XFOIL   c>   Max thickness =     0.160046  at x =   0.300
 Max camber    =     0.011133  at x =   0.051

 Buffer airfoil set using 331 points

 Blunt trailing edge.  Gap =  0.00336

 Paneling parameters used...
   Number of panel nodes       160
   Panel bunching parameter    1.000
   TE/LE panel density ratio   0.150
   Refined-area/LE panel density ratio    0.200
   Top    side refined area x/c limits  1.000 1.000
   Bottom side refined area x/c limits  1.000 1.000

 XFOIL   c>  
    Present paneling parameters...
  N  i   Number of panel nodes       160
  P  r   Panel bunching parameter    1.000
  T  r   TE/LE panel density ratio   0.150
  R  r   Refined area/LE  panel density ratio   0.200
  XT rr  Top    side refined area x/c limits    1.000 1.000
  XB rr  Bottom side refined area x/c limits    1.000 1.000
  Z oom
  U nzoom

Change what ? (<cr> if nothing else)   c>  
Enter number of panel nodes   i>  
Change what ? (<cr> if nothing else)   c>  
 Blunt trailing edge.  Gap =  0.00336

 Maximum panel corner angle = 12.294   at  i,x,y  =  55   0.0032  -0.0113

    Present paneling parameters...
  N  i   Number of panel nodes       100
  P  r   Panel bunching parameter    1.000
  T  r   TE/LE panel density ratio   0.150
  R  r   Refined area/LE  panel density ratio   0.200
  XT rr  Top    side refined area x/c limits    1.000 1.000
  XB rr  Bottom side refined area x/c limits    1.000 1.000
  Z oom
  U nzoom

Change what ? (<cr> if nothing else)   c>  
 ***  Input not recognized  ***

    Present paneling parameters...
  N  i   Number of panel nodes       100
  P  r   Panel bunching parameter    1.000
  T  r   TE/LE panel density ratio   0.150
  R  r   Refined area/LE  panel density ratio   0.200
  XT rr  Top    side refined area x/c limits    1.000 1.000
  XB rr  Bottom side refined area x/c limits    1.000 1.000
  Z oom
  U nzoom

Change what ? (<cr> if nothing else)   c>  
 ***  Input not recognized  ***

    Present paneling parameters...
  N  i   Number of panel nodes       100
  P  r   Panel bunching parameter    1.000
  T  r   TE/LE panel density ratio   0.150
  R  r   Refined area/LE  panel density ratio   0.200
  XT rr  Top    side refined area x/c limits    1.000 1.000
  XB rr  Bottom side refined area x/c limits    1.000 1.000
  Z oom
  U nzoom

Change what ? (<cr> if nothing else)   c>  
 ***  Input not recognized  ***

    Present paneling parameters...
  N  i   Number of panel nodes       100
  P  r   Panel bunching parameter    1.000
  T  r   TE/LE panel density ratio   0.150
  R  r   Refined area/LE  panel density ratio   0.200
  XT rr  Top    side refined area x/c limits    1.000 1.000
  XB rr  Bottom side refined area x/c limits    1.000 1.000
  Z oom
  U nzoom

Change what ? (<cr> if nothing else)   c>  
 XFOIL   c>  
 XFOIL   c>  
 XFOIL   c>  
.OPERi   c>  
.OPERi   c>  
 Sonic Cp =    -66.86      Sonic Q/Qinf =     9.138


.OPERi   c>  
 M  =    0.1000
 Re =    100000

.OPERv   c>  
 Polar  1 newly created for accumulation
 Airfoil archived with polar: NACA 21016                                      

Enter  polar save filename  OR  <return> for no file   s>  
 Polar save file will NOT be written

Enter  polar dump filename  OR  <return> for no file   s>  
 Polar dump file will NOT be written

 Polar accumulation enabled

.OPERva   c>   Calculating unit vorticity distributions ...
 Calculating wake trajectory ...
 Calculating source influence matrix ...

 Solving BL system ...

 Initializing BL ...
    side            1  ...
 MRCHUE: Inverse mode at  37     Hk =   3.903
 MRCHUE: Inverse mode at  38     Hk =   4.375
 MRCHUE: Inverse mode at  39     Hk =   4.831
 MRCHUE: Inverse mode at  40     Hk =   5.271
 MRCHUE: Inverse mode at  41     Hk =   5.694
 MRCHUE: Inverse mode at  42     Hk =   6.095
 MRCHUE: Inverse mode at  43     Hk =   6.463
 MRCHUE: Inverse mode at  44     Hk =   6.788
 MRCHUE: Inverse mode at  45     Hk =   7.061
 MRCHUE: Inverse mode at  46     Hk =   7.215
    side            2  ...
 MRCHUE: Inverse mode at  14     Hk =   4.186
 MRCHUE: Inverse mode at  15     Hk =   4.784
 MRCHUE: Inverse mode at  16     Hk =   5.354
 MRCHUE: Convergence failed at  17  side 2    Res =  0.7699E+01
 MRCHUE: Inverse mode at  18     Hk =   5.969
 MRCHUE: Inverse mode at  19     Hk =   6.595
 MRCHUE: Inverse mode at  20     Hk =   7.245
 MRCHUE: Inverse mode at  21     Hk =   7.928
 MRCHUE: Inverse mode at  22     Hk =   8.652
 MRCHUE: Inverse mode at  23     Hk =   9.427
 MRCHUE: Inverse mode at  24     Hk =   9.229
 MRCHUE: Inverse mode at  25     Hk =   5.358
 MRCHUE: Inverse mode at  26     Hk =   3.358
 MRCHUE: Inverse mode at  27     Hk =   2.500
 MRCHUE: Inverse mode at  54     Hk =   2.500
 MRCHUE: Inverse mode at  55     Hk =   2.500
 MRCHUE: Convergence failed at  56  side 2    Res =  0.4444E+01
 MRCHUE: Inverse mode at  58     Hk =   3.043

 MRCHDU: Convergence failed at  56  side 2    Res =  0.1387E+01
 Side 1 forced transition at x/c =  1.0000   46
 Side 2  free  transition at x/c =  0.1044   25

   1   rms: 0.5154E+00   max: -.4199E+01   T at   25  2   RLX: 0.119
       a = -5.000      CL = -0.5181
      Cm = -0.0079     CD =  0.00985   =>   CDf =  0.00978    CDp =  0.00007

 Side 1 forced transition at x/c =  1.0000   46
 Side 2  free  transition at x/c =  0.1108   25

   2   rms: 0.3685E+00   max: -.2465E+01   T at   25  2   RLX: 0.203
       a = -5.000      CL = -0.5166
      Cm = -0.0060     CD =  0.01236   =>   CDf =  0.00986    CDp =  0.00250

 Side 1 forced transition at x/c =  1.0000   46
 Side 2  free  transition at x/c =  0.1339   26

   3   rms: 0.2629E+00   max: 0.1111E+01   D at   60  2   RLX: 0.538
       a = -5.000      CL = -0.5795
      Cm =  0.0083     CD =  0.01367   =>   CDf =  0.00908    CDp =  0.00460

 Side 1 forced transition at x/c =  1.0000   46
 Side 2  free  transition at x/c =  0.3020   33

   4   rms: 0.1297E+00   max: 0.6868E+00   C at   33  2
       a = -5.000      CL = -0.6266
      Cm =  0.0182     CD =  0.01837   =>   CDf =  0.00800    CDp =  0.01037

 Side 1 forced transition at x/c =  1.0000   46
 Side 2  free  transition at x/c =  0.2623   31

   5   rms: 0.3143E-01   max: 0.3494E+00   C at   31  2
       a = -5.000      CL = -0.6406
      Cm =  0.0201     CD =  0.01956   =>   CDf =  0.00829    CDp =  0.01127

 Side 1 forced transition at x/c =  1.0000   46
 Side 2  free  transition at x/c =  0.2197   30

   6   rms: 0.4792E-02   max: -.7111E-01   C at   30  2
       a = -5.000      CL = -0.6399
      Cm =  0.0201     CD =  0.01969   =>   CDf =  0.00850    CDp =  0.01119

 Side 1 forced transition at x/c =  1.0000   46
 Side 2  free  transition at x/c =  0.2225   30

   7   rms: 0.9055E-04   max: 0.1181E-02   C at   30  2
       a = -5.000      CL = -0.6399
      Cm =  0.0201     CD =  0.01970   =>   CDf =  0.00847    CDp =  0.01123
 plradd ia,ip,cpol            1          45  5.79627790E-03

 Point added to stored polar  1
 Save file unspecified or not available
 Dump file unspecified or not available

.OPERva   c>  
.OPERva   c>  
.OPERva   c>   Calculating wake trajectory ...
 Calculating source influence matrix ...

 Solving BL system ...

 Side 1 forced transition at x/c =  1.0000   46
 Side 2  free  transition at x/c =  0.2224   30

   1   rms: 0.1116E+00   max: -.1745E+01   C at   30  2   RLX: 0.286
       a = -4.800      CL = -0.6384
      Cm =  0.0207     CD =  0.01934   =>   CDf =  0.00847    CDp =  0.01087

 Side 1 forced transition at x/c =  1.0000   46
 Side 2  free  transition at x/c =  0.2445   31

   2   rms: 0.7084E-01   max: -.9604E+00   C at   31  2   RLX: 0.521
       a = -4.800      CL = -0.6348
      Cm =  0.0214     CD =  0.01908   =>   CDf =  0.00841    CDp =  0.01067

 Side 1 forced transition at x/c =  1.0000   46
 Side 2  free  transition at x/c =  0.2701   31

   3   rms: 0.2239E-01   max: -.2005E+00   C at   31  2
       a = -4.800      CL = -0.6280
      Cm =  0.0216     CD =  0.01925   =>   CDf =  0.00829    CDp =  0.01096

 MRCHDU: Convergence failed at  34  side 2    Res =  0.2228E+01
 Side 1 forced transition at x/c =  1.0000   46
 Side 2  free  transition at x/c =  0.3427   34

   4   rms: 0.2050E-01   max: -.1227E+00   D at   36  2
       a = -4.800      CL = -0.6324
      Cm =  0.0221     CD =  0.01886   =>   CDf =  0.00779    CDp =  0.01106

 Side 1 forced transition at x/c =  1.0000   46
 Side 2  free  transition at x/c =  0.3098   33

   5   rms: 0.4154E-02   max: -.5362E-01   C at   33  2
       a = -4.800      CL = -0.6315
      Cm =  0.0220     CD =  0.01900   =>   CDf =  0.00797    CDp =  0.01103

 Side 1 forced transition at x/c =  1.0000   46
 Side 2  free  transition at x/c =  0.3123   33

   6   rms: 0.1340E-03   max: 0.1775E-02   C at   33  2
       a = -4.800      CL = -0.6315
      Cm =  0.0220     CD =  0.01900   =>   CDf =  0.00794    CDp =  0.01106

 Side 1 forced transition at x/c =  1.0000   46
 Side 2  free  transition at x/c =  0.3122   33

   7   rms: 0.1159E-05   max: -.9202E-05   C at   33  2
       a = -4.800      CL = -0.6315
      Cm =  0.0220     CD =  0.01900   =>   CDf =  0.00795    CDp =  0.01106
 plradd ia,ip,cpol            2          45  5.79627790E-03

 Point added to stored polar  1
 Save file unspecified or not available
 Dump file unspecified or not available

.OPERva   c>  
.OPERva   c>  
.OPERva   c>   Calculating wake trajectory ...
 Calculating source influence matrix ...

 Solving BL system ...

 Side 1 forced transition at x/c =  1.0000   46
 Side 2  free  transition at x/c =  0.3122   33

   1   rms: 0.6286E-01   max: -.7602E+00   C at   33  2   RLX: 0.658
       a = -4.600      CL = -0.6253
      Cm =  0.0232     CD =  0.01866   =>   CDf =  0.00794    CDp =  0.01072

 Side 1 forced transition at x/c =  1.0000   46
 Side 2  free  transition at x/c =  0.3532   34

   2   rms: 0.1551E-01   max: -.8294E-01   T at   34  2
       a = -4.600      CL = -0.6199
      Cm =  0.0236     CD =  0.01877   =>   CDf =  0.00777    CDp =  0.01099

 Side 1 forced transition at x/c =  1.0000   46
 Side 2  free  transition at x/c =  0.3787   35

   3   rms: 0.7756E-02   max: 0.1070E+00   C at   35  2
       a = -4.600      CL = -0.6211
      Cm =  0.0238     CD =  0.01867   =>   CDf =  0.00757    CDp =  0.01110

 Side 1 forced transition at x/c =  1.0000   46
 Side 2  free  transition at x/c =  0.3751   35

   4   rms: 0.2692E-03   max: -.3380E-02   D at   37  2
       a = -4.600      CL = -0.6212
      Cm =  0.0238     CD =  0.01867   =>   CDf =  0.00761    CDp =  0.01106

 Side 1 forced transition at x/c =  1.0000   46
 Side 2  free  transition at x/c =  0.3749   35

   5   rms: 0.1192E-05   max: -.5932E-05   D at   37  2
       a = -4.600      CL = -0.6212
      Cm =  0.0238     CD =  0.01867   =>   CDf =  0.00761    CDp =  0.01106
 plradd ia,ip,cpol            3          45  5.79627790E-03

 Point added to stored polar  1
 Save file unspecified or not available
 Dump file unspecified or not available

.OPERva   c>  
.OPERva   c>  
.OPERva   c>   Calculating wake trajectory ...
 Calculating source influence matrix ...

 Solving BL system ...

 Side 1 forced transition at x/c =  1.0000   46
 Side 2  free  transition at x/c =  0.3749   35

   1   rms: 0.4298E-01   max: -.3049E+00   C at   35  2
       a = -4.400      CL = -0.6092
      Cm =  0.0254     CD =  0.01850   =>   CDf =  0.00761    CDp =  0.01089

 Side 1 forced transition at x/c =  1.0000   46
 Side 2  free  transition at x/c =  0.4161   36

   2   rms: 0.3052E-02   max: -.2730E-01   D at   34  2
       a = -4.400      CL = -0.6090
      Cm =  0.0253     CD =  0.01856   =>   CDf =  0.00748    CDp =  0.01109

 Side 1 forced transition at x/c =  1.0000   46
 Side 2  free  transition at x/c =  0.4176   36

   3   rms: 0.3535E-02   max: -.4957E-01   C at   36  2
       a = -4.400      CL = -0.6089
      Cm =  0.0253     CD =  0.01857   =>   CDf =  0.00752    CDp =  0.01104

 Side 1 forced transition at x/c =  1.0000   46
 Side 2  free  transition at x/c =  0.4176   36

   4   rms: 0.3507E-02   max: -.4944E-01   C at   36  2
       a = -4.400      CL = -0.6089
      Cm =  0.0253     CD =  0.01857   =>   CDf =  0.00752    CDp =  0.01104

 Side 1 forced transition at x/c =  1.0000   46
 Side 2  free  transition at x/c =  0.4176   36

   5   rms: 0.3505E-02   max: -.4942E-01   C at   36  2
       a = -4.400      CL = -0.6089
      Cm =  0.0253     CD =  0.01857   =>   CDf =  0.00752    CDp =  0.01104

 Side 1 forced transition at x/c =  1.0000   46
 Side 2  free  transition at x/c =  0.4176   36

   6   rms: 0.3505E-02   max: -.4942E-01   C at   36  2
       a = -4.400      CL = -0.6089
      Cm =  0.0253     CD =  0.01857   =>   CDf =  0.00752    CDp =  0.01104

 Side 1 forced transition at x/c =  1.0000   46
 Side 2  free  transition at x/c =  0.4176   36

   7   rms: 0.3505E-02   max: -.4942E-01   C at   36  2
       a = -4.400      CL = -0.6089
      Cm =  0.0253     CD =  0.01857   =>   CDf =  0.00752    CDp =  0.01104

 Side 1 forced transition at x/c =  1.0000   46
 Side 2  free  transition at x/c =  0.4176   36

   8   rms: 0.3505E-02   max: -.4943E-01   C at   36  2
       a = -4.400      CL = -0.6089
      Cm =  0.0253     CD =  0.01857   =>   CDf =  0.00752    CDp =  0.01104

 Side 1 forced transition at x/c =  1.0000   46
 Side 2  free  transition at x/c =  0.4176   36

   9   rms: 0.3505E-02   max: -.4943E-01   C at   36  2
       a = -4.400      CL = -0.6089
      Cm =  0.0253     CD =  0.01857   =>   CDf =  0.00752    CDp =  0.01104

 Side 1 forced transition at x/c =  1.0000   46
 Side 2  free  transition at x/c =  0.4176   36

  10   rms: 0.3505E-02   max: -.4942E-01   C at   36  2
       a = -4.400      CL = -0.6089
      Cm =  0.0253     CD =  0.01857   =>   CDf =  0.00752    CDp =  0.01104
 VISCAL:  Convergence failed

.OPERva   c>  
.OPERva   c>  
.OPERva   c>   Calculating wake trajectory ...
 Calculating source influence matrix ...

 Solving BL system ...

 Side 1 forced transition at x/c =  1.0000   46
 Side 2  free  transition at x/c =  0.4176   36

   1   rms: 0.3658E-01   max: -.1676E+00   T at   36  2
       a = -4.200      CL = -0.5946
      Cm =  0.0264     CD =  0.01868   =>   CDf =  0.00752    CDp =  0.01116

 MRCHDU: Convergence failed at  38  side 2    Res =  0.2157E+01
 MRCHDU: Convergence failed at  39  side 2    Res =  0.1228E+01
 MRCHDU: Convergence failed at  40  side 2    Res =  0.1821E+01
 MRCHDU: Convergence failed at  41  side 2    Res =  0.2741E+01
 MRCHDU: Convergence failed at  42  side 2    Res =  0.3842E+01
 MRCHDU: Convergence failed at  43  side 2    Res =  0.5506E+01
 MRCHDU: Convergence failed at  44  side 2    Res =  0.6783E+01
 MRCHDU: Convergence failed at  45  side 2    Res =  0.7535E+01
 MRCHDU: Convergence failed at  46  side 2    Res =  0.7843E+01
 MRCHDU: Convergence failed at  47  side 2    Res =  0.7928E+01
 MRCHDU: Convergence failed at  48  side 2    Res =  0.7722E+01
 MRCHDU: Convergence failed at  49  side 2    Res =  0.7241E+01
 MRCHDU: Convergence failed at  50  side 2    Res =  0.6789E+01
 MRCHDU: Convergence failed at  51  side 2    Res =  0.6134E+01
 MRCHDU: Convergence failed at  52  side 2    Res =  0.5451E+01
 MRCHDU: Convergence failed at  53  side 2    Res =  0.6586E+01
 MRCHDU: Convergence failed at  54  side 2    Res =  0.9010E+01
 MRCHDU: Convergence failed at  55  side 2    Res =  0.1310E+02
 MRCHDU: Convergence failed at  56  side 2    Res =  0.1687E+02
 Side 1 forced transition at x/c =  1.0000   46
 Side 2  free  transition at x/c =  0.4654   38

   2   rms: 0.3247E+00   max: 0.1293E+01   D at   60  2
       a = -4.200      CL = -0.4818
      Cm =  0.0121     CD =  0.01643   =>   CDf =  0.00513    CDp =  0.01131

 MRCHDU: Convergence failed at  59  side 2    Res =  0.3262E+01
 MRCHDU: Convergence failed at  60  side 2    Res =  0.1765E+01
 MRCHDU: Convergence failed at  61  side 2    Res =  0.4586E+01
 Side 1 forced transition at x/c =  1.0000   47
 Side 2  free  transition at x/c =  0.5204   39
 idif Ue xi dudx           1  0.18296167      5.97012043E-03   30.646229    
 Uenew xinew           2  4.01645452E-02  1.31058693E-03

   3   rms: 0.1289E+00   max: -.5821E+00   D at   41  2   RLX: 0.859
       a = -4.200      CL = -0.5782
      Cm =  0.0242     CD =  0.01777   =>   CDf =  0.00729    CDp =  0.01047

 Side 1 forced transition at x/c =  1.0000   46
 Side 2  free  transition at x/c =  0.4858   39

   4   rms: 0.4403E-01   max: -.2875E+00   D at   39  2
       a = -4.200      CL = -0.5967
      Cm =  0.0268     CD =  0.01835   =>   CDf =  0.00717    CDp =  0.01118

 Side 1 forced transition at x/c =  1.0000   46
 Side 2  free  transition at x/c =  0.4586   38

   5   rms: 0.1021E-01   max: -.1339E+00   D at   38  2
       a = -4.200      CL = -0.5968
      Cm =  0.0269     CD =  0.01847   =>   CDf =  0.00729    CDp =  0.01119

 Side 1 forced transition at x/c =  1.0000   46
 Side 2  free  transition at x/c =  0.4547   38

   6   rms: 0.3209E-03   max: 0.2897E-02   D at   40  2
       a = -4.200      CL = -0.5969
      Cm =  0.0269     CD =  0.01850   =>   CDf =  0.00729    CDp =  0.01121

 Side 1 forced transition at x/c =  1.0000   46
 Side 2  free  transition at x/c =  0.4548   38

   7   rms: 0.3605E-05   max: -.1458E-04   D at   54  2
       a = -4.200      CL = -0.5969
      Cm =  0.0269     CD =  0.01850   =>   CDf =  0.00729    CDp =  0.01121
 plradd ia,ip,cpol            4          45  5.79627790E-03

 Point added to stored polar  1
 Save file unspecified or not available
 Dump file unspecified or not available

.OPERva   c>  
.OPERva   c>  
.OPERva   c>   Calculating wake trajectory ...
 Calculating source influence matrix ...

 Solving BL system ...

 Side 1 forced transition at x/c =  1.0000   46
 Side 2  free  transition at x/c =  0.4547   38

   1   rms: 0.4298E-01   max: 0.2584E+00   D at   39  2
       a = -4.000      CL = -0.5849
      Cm =  0.0286     CD =  0.01842   =>   CDf =  0.00729    CDp =  0.01113

 Side 1 forced transition at x/c =  1.0000   46
 Side 2  free  transition at x/c =  0.4751   38

   2   rms: 0.2482E-01   max: -.2913E+00   D at   39  2
       a = -4.000      CL = -0.5832
      Cm =  0.0280     CD =  0.01857   =>   CDf =  0.00745    CDp =  0.01112

 Side 1 forced transition at x/c =  1.0000   46
 Side 2  free  transition at x/c =  0.4901   39

   3   rms: 0.1063E-01   max: 0.1148E+00   C at   39  2
       a = -4.000      CL = -0.5837
      Cm =  0.0282     CD =  0.01850   =>   CDf =  0.00711    CDp =  0.01139

 Side 1 forced transition at x/c =  1.0000   46
 Side 2  free  transition at x/c =  0.4848   39

   4   rms: 0.8337E-03   max: -.1076E-01   D at   41  2
       a = -4.000      CL = -0.5838
      Cm =  0.0282     CD =  0.01852   =>   CDf =  0.00719    CDp =  0.01133

 Side 1 forced transition at x/c =  1.0000   46
 Side 2  free  transition at x/c =  0.4844   39

   5   rms: 0.6302E-05   max: -.8152E-04   D at   41  2
       a = -4.000      CL = -0.5838
      Cm =  0.0282     CD =  0.01852   =>   CDf =  0.00720    CDp =  0.01132
 plradd ia,ip,cpol            5          45  5.79627790E-03

 Point added to stored polar  1
 Save file unspecified or not available
 Dump file unspecified or not available

.OPERva   c>  
.OPERva   c>  
.OPERva   c>   Calculating wake trajectory ...
 Calculating source influence matrix ...

 Solving BL system ...

 Side 1 forced transition at x/c =  1.0000   46
 Side 2  free  transition at x/c =  0.4844   39

   1   rms: 0.3848E-01   max: 0.2149E+00   D at   40  2
       a = -3.800      CL = -0.5707
      Cm =  0.0297     CD =  0.01850   =>   CDf =  0.00720    CDp =  0.01130

 Side 1  free  transition at x/c =  0.9862   45
 Side 2  free  transition at x/c =  0.5081   39

   2   rms: 0.4410E-01   max: -.3079E+00   D at   46  1
       a = -3.800      CL = -0.5423
      Cm =  0.0241     CD =  0.01896   =>   CDf =  0.00730    CDp =  0.01166

 Side 1  free  transition at x/c =  0.9960   47
 Side 2  free  transition at x/c =  0.5330   39

   3   rms: 0.3066E-01   max: 0.3256E+00   C at   39  2
       a = -3.800      CL = -0.5497
      Cm =  0.0257     CD =  0.01856   =>   CDf =  0.00690    CDp =  0.01166

 Side 1  free  transition at x/c =  0.9934   47
 Side 2  free  transition at x/c =  0.5245   39

   4   rms: 0.3408E-02   max: -.3586E-01   D at   42  2
       a = -3.800      CL = -0.5500
      Cm =  0.0259     CD =  0.01864   =>   CDf =  0.00703    CDp =  0.01161

 Side 1  free  transition at x/c =  0.9932   47
 Side 2  free  transition at x/c =  0.5224   39

   5   rms: 0.9581E-04   max: -.9083E-03   D at   39  2
       a = -3.800      CL = -0.5500
      Cm =  0.0259     CD =  0.01864   =>   CDf =  0.00706    CDp =  0.01158
 plradd ia,ip,cpol            6          46  5.79627790E-03

 Point added to stored polar  1
 Save file unspecified or not available
 Dump file unspecified or not available

.OPERva   c>  
.OPERva   c>  
.OPERva   c>   Calculating wake trajectory ...
 Calculating source influence matrix ...

 Solving BL system ...

 Side 1  free  transition at x/c =  0.9932   47
 Side 2  free  transition at x/c =  0.5224   39

   1   rms: 0.5259E-01   max: 0.2448E+00   D at   40  2
       a = -3.600      CL = -0.5121
      Cm =  0.0229     CD =  0.01885   =>   CDf =  0.00706    CDp =  0.01180

 Side 1  free  transition at x/c =  0.9862   46
 Side 2  free  transition at x/c =  0.5456   40

   2   rms: 0.1815E-01   max: -.1453E+00   D at   40  2
       a = -3.600      CL = -0.5119
      Cm =  0.0228     CD =  0.01874   =>   CDf =  0.00717    CDp =  0.01157

 Side 1  free  transition at x/c =  0.9860   46
 Side 2  free  transition at x/c =  0.5543   40

   3   rms: 0.1785E-02   max: -.2020E-01   D at   42  2
       a = -3.600      CL = -0.5122
      Cm =  0.0229     CD =  0.01881   =>   CDf =  0.00698    CDp =  0.01183

 Side 1  free  transition at x/c =  0.9858   46
 Side 2  free  transition at x/c =  0.5530   40

   4   rms: 0.5433E-04   max: -.5138E-03   D at   40  2
       a = -3.600      CL = -0.5122
      Cm =  0.0229     CD =  0.01881   =>   CDf =  0.00700    CDp =  0.01181
 plradd ia,ip,cpol            7          46  5.79627790E-03

 Point added to stored polar  1
 Save file unspecified or not available
 Dump file unspecified or not available

.OPERva   c>  
.OPERva   c>  
.OPERva   c>   Calculating wake trajectory ...
 Calculating source influence matrix ...

 Solving BL system ...

 Side 1  free  transition at x/c =  0.9858   46
 Side 2  free  transition at x/c =  0.5530   40

   1   rms: 0.4525E-01   max: 0.2382E+00   T at   46  1
       a = -3.400      CL = -0.4815
      Cm =  0.0213     CD =  0.01885   =>   CDf =  0.00700    CDp =  0.01185

 Side 1  free  transition at x/c =  0.9749   46
 Side 2  free  transition at x/c =  0.5859   41

   2   rms: 0.6683E-02   max: 0.7156E-01   D at   41  2
       a = -3.400      CL = -0.4787
      Cm =  0.0208     CD =  0.01893   =>   CDf =  0.00688    CDp =  0.01205

 Side 1  free  transition at x/c =  0.9762   46
 Side 2  free  transition at x/c =  0.5854   41

   3   rms: 0.2826E-03   max: 0.2981E-02   D at   41  2
       a = -3.400      CL = -0.4787
      Cm =  0.0208     CD =  0.01894   =>   CDf =  0.00689    CDp =  0.01204

 Side 1  free  transition at x/c =  0.9762   46
 Side 2  free  transition at x/c =  0.5853   41

   4   rms: 0.2653E-05   max: -.2142E-04   D at   46  1
       a = -3.400      CL = -0.4787
      Cm =  0.0208     CD =  0.01894   =>   CDf =  0.00689    CDp =  0.01204
 plradd ia,ip,cpol            8          46  5.79627790E-03

 Point added to stored polar  1
 Save file unspecified or not available
 Dump file unspecified or not available

.OPERva   c>  
.OPERva   c>  
.OPERva   c>   Calculating wake trajectory ...
 Calculating source influence matrix ...

 Solving BL system ...

 Side 1  free  transition at x/c =  0.9762   46
 Side 2  free  transition at x/c =  0.5853   41

   1   rms: 0.5197E-01   max: -.2675E+00   T at   41  2
       a = -3.200      CL = -0.4426
      Cm =  0.0185     CD =  0.01917   =>   CDf =  0.00689    CDp =  0.01228

 Side 1  free  transition at x/c =  0.9674   46
 Side 2  free  transition at x/c =  0.6101   42

   2   rms: 0.1632E-01   max: -.1111E+00   T at   42  2
       a = -3.200      CL = -0.4389
      Cm =  0.0177     CD =  0.01911   =>   CDf =  0.00693    CDp =  0.01218

 Side 1  free  transition at x/c =  0.9687   46
 Side 2  free  transition at x/c =  0.6173   42

   3   rms: 0.1779E-02   max: -.2040E-01   D at   42  2
       a = -3.200      CL = -0.4388
      Cm =  0.0177     CD =  0.01917   =>   CDf =  0.00681    CDp =  0.01236

 Side 1  free  transition at x/c =  0.9687   46
 Side 2  free  transition at x/c =  0.6173   42

   4   rms: 0.1251E-04   max: 0.9483E-04   C at   42  2
       a = -3.200      CL = -0.4388
      Cm =  0.0177     CD =  0.01917   =>   CDf =  0.00680    CDp =  0.01236
 plradd ia,ip,cpol            9          46  5.79627790E-03

 Point added to stored polar  1
 Save file unspecified or not available
 Dump file unspecified or not available

.OPERva   c>  
.OPERva   c>  
.OPERva   c>   Calculating wake trajectory ...
 Calculating source influence matrix ...

 Solving BL system ...

 Side 1  free  transition at x/c =  0.9687   46
 Side 2  free  transition at x/c =  0.6173   42

   1   rms: 0.5450E-01   max: -.2787E+00   T at   42  2
       a = -3.000      CL = -0.3960
      Cm =  0.0142     CD =  0.01949   =>   CDf =  0.00684    CDp =  0.01265

 Side 1  free  transition at x/c =  0.9634   46
 Side 2  free  transition at x/c =  0.6527   42
 idif Ue xi dudx           1  0.14977251      4.41098213E-03   33.954460    
 Uenew xinew           2  8.78348073E-04  2.58684158E-05

   2   rms: 0.2533E-01   max: 0.1400E+00   T at   46  1
       a = -3.000      CL = -0.4140
      Cm =  0.0175     CD =  0.01922   =>   CDf =  0.00665    CDp =  0.01257

 Side 1  free  transition at x/c =  0.9566   45
 Side 2  free  transition at x/c =  0.6449   43

   3   rms: 0.1530E-01   max: -.2062E+00   D at    2  2
       a = -3.000      CL = -0.4108
      Cm =  0.0170     CD =  0.01927   =>   CDf =  0.00675    CDp =  0.01252

 Side 1  free  transition at x/c =  0.9578   46
 Side 2  free  transition at x/c =  0.6454   42

   4   rms: 0.1680E-02   max: -.1484E-01   D at    3  2
       a = -3.000      CL = -0.4107
      Cm =  0.0170     CD =  0.01927   =>   CDf =  0.00672    CDp =  0.01255

 Side 1  free  transition at x/c =  0.9579   46
 Side 2  free  transition at x/c =  0.6454   42

   5   rms: 0.6516E-03   max: 0.6606E-02   D at    4  1
       a = -3.000      CL = -0.4107
      Cm =  0.0170     CD =  0.01927   =>   CDf =  0.00672    CDp =  0.01255

 Side 1  free  transition at x/c =  0.9579   46
 Side 2  free  transition at x/c =  0.6454   42

   6   rms: 0.3904E-05   max: 0.3763E-04   D at    4  1
       a = -3.000      CL = -0.4107
      Cm =  0.0170     CD =  0.01927   =>   CDf =  0.00672    CDp =  0.01255
 plradd ia,ip,cpol           10          47  5.79627790E-03

 Point added to stored polar  1
 Save file unspecified or not available
 Dump file unspecified or not available

.OPERva   c>  
.OPERva   c>  
.OPERva   c>   Calculating wake trajectory ...
 Calculating source influence matrix ...

 Solving BL system ...

 Side 1  free  transition at x/c =  0.9579   46
 Side 2  free  transition at x/c =  0.6454   42

   1   rms: 0.4943E-01   max: -.2840E+00   T at   42  2
       a = -2.800      CL = -0.3813
      Cm =  0.0164     CD =  0.01947   =>   CDf =  0.00672    CDp =  0.01276

 Side 1  free  transition at x/c =  0.9465   46
 Side 2  free  transition at x/c =  0.6676   43

   2   rms: 0.3260E-01   max: -.2483E+00   T at   43  2
       a = -2.800      CL = -0.3770
      Cm =  0.0153     CD =  0.01914   =>   CDf =  0.00683    CDp =  0.01231

 Side 1  free  transition at x/c =  0.9487   46
 Side 2  free  transition at x/c =  0.6776   43

   3   rms: 0.5759E-02   max: -.5744E-01   D at   43  2
       a = -2.800      CL = -0.3761
      Cm =  0.0153     CD =  0.01947   =>   CDf =  0.00659    CDp =  0.01288

 Side 1  free  transition at x/c =  0.9486   46
 Side 2  free  transition at x/c =  0.6757   43

   4   rms: 0.3070E-03   max: -.3341E-02   D at   43  2
       a = -2.800      CL = -0.3761
      Cm =  0.0153     CD =  0.01947   =>   CDf =  0.00661    CDp =  0.01286

 Side 1  free  transition at x/c =  0.9485   46
 Side 2  free  transition at x/c =  0.6758   43

   5   rms: 0.1217E-05   max: -.7537E-05   D at   53  2
       a = -2.800      CL = -0.3761
      Cm =  0.0153     CD =  0.01947   =>   CDf =  0.00661    CDp =  0.01286
 plradd ia,ip,cpol           11          47  5.79627790E-03

 Point added to stored polar  1
 Save file unspecified or not available
 Dump file unspecified or not available

.OPERva   c>  
.OPERva   c>  
.OPERva   c>   Calculating wake trajectory ...
 Calculating source influence matrix ...

 Solving BL system ...

 Side 1  free  transition at x/c =  0.9485   46
 Side 2  free  transition at x/c =  0.6758   43

   1   rms: 0.5583E-01   max: -.3067E+00   T at   43  2
       a = -2.600      CL = -0.3368
      Cm =  0.0132     CD =  0.01977   =>   CDf =  0.00661    CDp =  0.01316

 Side 1  free  transition at x/c =  0.9416   45
 Side 2  free  transition at x/c =  0.6927   43

   2   rms: 0.3771E-01   max: -.3029E+00   D at   44  2
       a = -2.600      CL = -0.3436
      Cm =  0.0134     CD =  0.01957   =>   CDf =  0.00671    CDp =  0.01286

 Side 1  free  transition at x/c =  0.9392   45
 Side 2  free  transition at x/c =  0.7100   44

   3   rms: 0.2203E-01   max: 0.2503E+00   D at   44  2
       a = -2.600      CL = -0.3396
      Cm =  0.0131     CD =  0.01954   =>   CDf =  0.00647    CDp =  0.01307

 Side 1  free  transition at x/c =  0.9406   45
 Side 2  free  transition at x/c =  0.7037   44

   4   rms: 0.3547E-02   max: -.2339E-01   D at   47  2
       a = -2.600      CL = -0.3374
      Cm =  0.0129     CD =  0.01965   =>   CDf =  0.00654    CDp =  0.01311

 Side 1  free  transition at x/c =  0.9411   45
 Side 2  free  transition at x/c =  0.7025   44

   5   rms: 0.1490E-03   max: -.9282E-03   T at   45  1
       a = -2.600      CL = -0.3373
      Cm =  0.0128     CD =  0.01965   =>   CDf =  0.00657    CDp =  0.01308

 Side 1  free  transition at x/c =  0.9412   45
 Side 2  free  transition at x/c =  0.7025   44

   6   rms: 0.8680E-06   max: -.4479E-05   T at   44  2
       a = -2.600      CL = -0.3373
      Cm =  0.0128     CD =  0.01965   =>   CDf =  0.00657    CDp =  0.01308
 plradd ia,ip,cpol           12          47  5.79627790E-03

 Point added to stored polar  1
 Save file unspecified or not available
 Dump file unspecified or not available

.OPERva   c>  
.OPERva   c>  
.OPERva   c>   Calculating wake trajectory ...
 Calculating source influence matrix ...

 Solving BL system ...

 Side 1  free  transition at x/c =  0.9412   45
 Side 2  free  transition at x/c =  0.7025   44

   1   rms: 0.3965E-01   max: 0.4035E+00   T at   45  1
       a = -2.400      CL = -0.3371
      Cm =  0.0176     CD =  0.01958   =>   CDf =  0.00657    CDp =  0.01301

 Side 1  free  transition at x/c =  0.9200   45
 Side 2  free  transition at x/c =  0.7139   44

   2   rms: 0.3624E-01   max: -.2040E+00   D at   48  1
       a = -2.400      CL = -0.3165
      Cm =  0.0136     CD =  0.01962   =>   CDf =  0.00652    CDp =  0.01310

 Side 1  free  transition at x/c =  0.9269   45
 Side 2  free  transition at x/c =  0.7203   44

   3   rms: 0.5783E-02   max: -.3296E-01   D at   45  1
       a = -2.400      CL = -0.3130
      Cm =  0.0130     CD =  0.01968   =>   CDf =  0.00651    CDp =  0.01316

 Side 1  free  transition at x/c =  0.9283   45
 Side 2  free  transition at x/c =  0.7209   44

   4   rms: 0.9825E-04   max: -.5345E-03   D at   45  1
       a = -2.400      CL = -0.3129
      Cm =  0.0130     CD =  0.01968   =>   CDf =  0.00652    CDp =  0.01316
 plradd ia,ip,cpol           13          47  5.79627790E-03

 Point added to stored polar  1
 Save file unspecified or not available
 Dump file unspecified or not available

.OPERva   c>  
.OPERva   c>  
.OPERva   c>   Calculating wake trajectory ...
 Calculating source influence matrix ...

 Solving BL system ...

 Side 1  free  transition at x/c =  0.9283   45
 Side 2  free  transition at x/c =  0.7209   44

   1   rms: 0.4110E-01   max: -.2066E+00   T at   44  2
       a = -2.200      CL = -0.2795
      Cm =  0.0111     CD =  0.01963   =>   CDf =  0.00652    CDp =  0.01311

 Side 1  free  transition at x/c =  0.9181   45
 Side 2  free  transition at x/c =  0.7439   45

   2   rms: 0.1628E-01   max: 0.1601E+00   D at   45  2
       a = -2.200      CL = -0.2742
      Cm =  0.0105     CD =  0.01965   =>   CDf =  0.00645    CDp =  0.01320

 Side 1  free  transition at x/c =  0.9202   45
 Side 2  free  transition at x/c =  0.7401   45

   3   rms: 0.1951E-02   max: 0.1245E-01   D at   46  2
       a = -2.200      CL = -0.2732
      Cm =  0.0104     CD =  0.01971   =>   CDf =  0.00648    CDp =  0.01323

 Side 1  free  transition at x/c =  0.9204   45
 Side 2  free  transition at x/c =  0.7392   45

   4   rms: 0.3085E-04   max: -.2207E-03   D at   45  2
       a = -2.200      CL = -0.2732
      Cm =  0.0104     CD =  0.01971   =>   CDf =  0.00649    CDp =  0.01321
 plradd ia,ip,cpol           14          47  5.79627790E-03

 Point added to stored polar  1
 Save file unspecified or not available
 Dump file unspecified or not available

.OPERva   c>  
.OPERva   c>  
.OPERva   c>   Calculating wake trajectory ...
 Calculating source influence matrix ...

 Solving BL system ...

 Side 1  free  transition at x/c =  0.9204   45
 Side 2  free  transition at x/c =  0.7392   45

   1   rms: 0.5043E-01   max: -.2002E+00   T at   45  2
       a = -2.000      CL = -0.2285
      Cm =  0.0072     CD =  0.01981   =>   CDf =  0.00655    CDp =  0.01326

 Side 1  free  transition at x/c =  0.9145   45
 Side 2  free  transition at x/c =  0.7553   44

   2   rms: 0.1509E-01   max: -.1203E+00   D at   45  2
       a = -2.000      CL = -0.2267
      Cm =  0.0064     CD =  0.01972   =>   CDf =  0.00655    CDp =  0.01317

 Side 1  free  transition at x/c =  0.9155   46
 Side 2  free  transition at x/c =  0.7605   44

   3   rms: 0.6140E-02   max: -.4255E-01   C at   44  2
       a = -2.000      CL = -0.2276
      Cm =  0.0065     CD =  0.01970   =>   CDf =  0.00657    CDp =  0.01313

 Side 1  free  transition at x/c =  0.9151   46
 Side 2  free  transition at x/c =  0.7605   44

   4   rms: 0.2140E-03   max: 0.1837E-02   D at   45  2
       a = -2.000      CL = -0.2275
      Cm =  0.0065     CD =  0.01971   =>   CDf =  0.00654    CDp =  0.01317

 Side 1  free  transition at x/c =  0.9151   46
 Side 2  free  transition at x/c =  0.7604   44

   5   rms: 0.1920E-05   max: -.1098E-04   T at   46  1
       a = -2.000      CL = -0.2275
      Cm =  0.0065     CD =  0.01971   =>   CDf =  0.00654    CDp =  0.01317
 plradd ia,ip,cpol           15          48  5.79627790E-03

 Point added to stored polar  1
 Save file unspecified or not available
 Dump file unspecified or not available

.OPERva   c>  
.OPERva   c>  
.OPERva   c>   Calculating wake trajectory ...
 Calculating source influence matrix ...

 Solving BL system ...

 Side 1  free  transition at x/c =  0.9151   46
 Side 2  free  transition at x/c =  0.7604   44

   1   rms: 0.5354E-01   max: -.2971E+00   T at   44  2
       a = -1.800      CL = -0.1842
      Cm =  0.0023     CD =  0.01951   =>   CDf =  0.00654    CDp =  0.01296

 Side 1  free  transition at x/c =  0.9107   45
 Side 2  free  transition at x/c =  0.7924   46

   2   rms: 0.7545E-01   max: 0.3578E+00   D at   48  1
       a = -1.800      CL = -0.2534
      Cm =  0.0154     CD =  0.01972   =>   CDf =  0.00653    CDp =  0.01319

 Side 1  free  transition at x/c =  0.8885   45
 Side 2  free  transition at x/c =  0.7803   45

   3   rms: 0.4513E-01   max: -.2192E+00   D at   47  1
       a = -1.800      CL = -0.2130
      Cm =  0.0090     CD =  0.01984   =>   CDf =  0.00641    CDp =  0.01343

 Side 1  free  transition at x/c =  0.8974   45
 Side 2  free  transition at x/c =  0.7717   45

   4   rms: 0.1185E-01   max: -.6579E-01   D at   49  1
       a = -1.800      CL = -0.2072
      Cm =  0.0079     CD =  0.01981   =>   CDf =  0.00647    CDp =  0.01334

 Side 1  free  transition at x/c =  0.9004   45
 Side 2  free  transition at x/c =  0.7735   45

   5   rms: 0.4590E-03   max: -.2128E-02   D at   45  1
       a = -1.800      CL = -0.2067
      Cm =  0.0078     CD =  0.01982   =>   CDf =  0.00647    CDp =  0.01335

 Side 1  free  transition at x/c =  0.9005   45
 Side 2  free  transition at x/c =  0.7735   45

   6   rms: 0.2496E-05   max: -.1186E-04   T at   45  1
       a = -1.800      CL = -0.2067
      Cm =  0.0078     CD =  0.01982   =>   CDf =  0.00647    CDp =  0.01335
 plradd ia,ip,cpol           16          48  9.13871545E-03

 Point added to stored polar  1
 Save file unspecified or not available
 Dump file unspecified or not available

.OPERva   c>  
.OPERva   c>  
.OPERva   c>   Calculating wake trajectory ...
 Calculating source influence matrix ...

 Solving BL system ...

 Side 1  free  transition at x/c =  0.9005   45
 Side 2  free  transition at x/c =  0.7735   45

   1   rms: 0.4456E-01   max: -.1724E+00   T at   45  2
       a = -1.600      CL = -0.1687
      Cm =  0.0058     CD =  0.01987   =>   CDf =  0.00647    CDp =  0.01341

 Side 1  free  transition at x/c =  0.8911   45
 Side 2  free  transition at x/c =  0.7882   45

   2   rms: 0.1541E-01   max: -.1061E+00   D at   46  2
       a = -1.600      CL = -0.1696
      Cm =  0.0056     CD =  0.01971   =>   CDf =  0.00651    CDp =  0.01321

 Side 1  free  transition at x/c =  0.8922   45
 Side 2  free  transition at x/c =  0.7934   46

   3   rms: 0.2064E-02   max: -.2941E-01   D at   45  2
       a = -1.600      CL = -0.1688
      Cm =  0.0055     CD =  0.01972   =>   CDf =  0.00651    CDp =  0.01321

 Side 1  free  transition at x/c =  0.8923   45
 Side 2  free  transition at x/c =  0.7927   46

   4   rms: 0.1339E-03   max: 0.1522E-02   D at   46  2
       a = -1.600      CL = -0.1688
      Cm =  0.0055     CD =  0.01972   =>   CDf =  0.00651    CDp =  0.01322

 Side 1  free  transition at x/c =  0.8923   45
 Side 2  free  transition at x/c =  0.7926   46

   5   rms: 0.1598E-05   max: 0.1015E-04   D at   53  2
       a = -1.600      CL = -0.1688
      Cm =  0.0055     CD =  0.01972   =>   CDf =  0.00651    CDp =  0.01322
 plradd ia,ip,cpol           17          48  9.13871545E-03

 Point added to stored polar  1
 Save file unspecified or not available
 Dump file unspecified or not available

.OPERva   c>  
.OPERva   c>  
.OPERva   c>   Calculating wake trajectory ...
 Calculating source influence matrix ...

 Solving BL system ...

 Side 1  free  transition at x/c =  0.8923   45
 Side 2  free  transition at x/c =  0.7926   46

   1   rms: 0.5372E-01   max: -.1851E+00   T at   46  2
       a = -1.400      CL = -0.1201
      Cm =  0.0021     CD =  0.01972   =>   CDf =  0.00657    CDp =  0.01315

 Side 1  free  transition at x/c =  0.8866   46
 Side 2  free  transition at x/c =  0.8042   45

   2   rms: 0.7518E-02   max: -.5695E-01   D at   45  2
       a = -1.400      CL = -0.1189
      Cm =  0.0019     CD =  0.01982   =>   CDf =  0.00649    CDp =  0.01333

 Side 1  free  transition at x/c =  0.8871   46
 Side 2  free  transition at x/c =  0.8045   45

   3   rms: 0.5404E-03   max: 0.5165E-02   D at    4  1
       a = -1.400      CL = -0.1188
      Cm =  0.0019     CD =  0.01982   =>   CDf =  0.00649    CDp =  0.01332

 Side 1  free  transition at x/c =  0.8871   46
 Side 2  free  transition at x/c =  0.8044   45

   4   rms: 0.3021E-05   max: -.2440E-04   D at    4  1
       a = -1.400      CL = -0.1188
      Cm =  0.0019     CD =  0.01982   =>   CDf =  0.00649    CDp =  0.01332
 plradd ia,ip,cpol           18          49  0.12285245    

 Point added to stored polar  1
 Save file unspecified or not available
 Dump file unspecified or not available

.OPERva   c>  
.OPERva   c>  
.OPERva   c>   Calculating wake trajectory ...
 Calculating source influence matrix ...

 Solving BL system ...

 Side 1  free  transition at x/c =  0.8871   46
 Side 2  free  transition at x/c =  0.8044   45

   1   rms: 0.5297E-01   max: -.1467E+00   T at   45  2
       a = -1.200      CL = -0.0691
      Cm = -0.0018     CD =  0.01985   =>   CDf =  0.00649    CDp =  0.01335

 Side 1  free  transition at x/c =  0.8827   45
 Side 2  free  transition at x/c =  0.8167   45

   2   rms: 0.5886E-01   max: 0.2847E+00   D at   48  1
       a = -1.200      CL = -0.1259
      Cm =  0.0075     CD =  0.02001   =>   CDf =  0.00654    CDp =  0.01347

 Side 1  free  transition at x/c =  0.8637   45
 Side 2  free  transition at x/c =  0.8226   45

   3   rms: 0.2973E-01   max: -.1618E+00   D at   48  1
       a = -1.200      CL = -0.1048
      Cm =  0.0040     CD =  0.01980   =>   CDf =  0.00649    CDp =  0.01332

 Side 1  free  transition at x/c =  0.8708   45
 Side 2  free  transition at x/c =  0.8219   45

   4   rms: 0.4329E-02   max: -.2746E-01   D at   47  1
       a = -1.200      CL = -0.1020
      Cm =  0.0035     CD =  0.01982   =>   CDf =  0.00651    CDp =  0.01331

 Side 1  free  transition at x/c =  0.8720   45
 Side 2  free  transition at x/c =  0.8216   45

   5   rms: 0.7072E-04   max: 0.3859E-03   D at   47  2
       a = -1.200      CL = -0.1019
      Cm =  0.0035     CD =  0.01982   =>   CDf =  0.00651    CDp =  0.01331
 plradd ia,ip,cpol           19          49  0.12285245    

 Point added to stored polar  1
 Save file unspecified or not available
 Dump file unspecified or not available

.OPERva   c>  
.OPERva   c>  
.OPERva   c>   Calculating wake trajectory ...
 Calculating source influence matrix ...

 Solving BL system ...

 Side 1  free  transition at x/c =  0.8720   45
 Side 2  free  transition at x/c =  0.8216   45

   1   rms: 0.3752E-01   max: -.2806E+00   T at   45  2
       a = -1.000      CL = -0.0914
      Cm =  0.0057     CD =  0.01946   =>   CDf =  0.00651    CDp =  0.01295

 Side 1  free  transition at x/c =  0.8577   45
 Side 2  free  transition at x/c =  0.8506   46

   2   rms: 0.8191E-01   max: 0.5011E+00   D at   47  2
       a = -1.000      CL = -0.0188
      Cm = -0.0058     CD =  0.02036   =>   CDf =  0.00653    CDp =  0.01383

 Side 1  free  transition at x/c =  0.8656   45
 Side 2  free  transition at x/c =  0.8200   45

   3   rms: 0.7065E-01   max: -.4695E+00   D at   48  2
       a = -1.000      CL = -0.0768
      Cm =  0.0023     CD =  0.01953   =>   CDf =  0.00654    CDp =  0.01299

 MRCHDU: Convergence failed at  47  side 2    Res =  0.7685E+01
 MRCHDU: Convergence failed at  48  side 2    Res =  0.8612E+01
 MRCHDU: Convergence failed at  49  side 2    Res =  0.8001E+01
 MRCHDU: Convergence failed at  50  side 2    Res =  0.8426E+01
 MRCHDU: Convergence failed at  51  side 2    Res =  0.1008E+02
 MRCHDU: Convergence failed at  52  side 2    Res =  0.1277E+02
 Side 1  free  transition at x/c =  0.8609   45
 Side 2  free  transition at x/c =  0.8586   47

   4   rms: 0.2238E+00   max: 0.1412E+01   C at   47  2
       a = -1.000      CL = -0.0026
      Cm = -0.0083     CD =  0.01771   =>   CDf =  0.00643    CDp =  0.01128

 Side 1  free  transition at x/c =  0.8692   45
 Side 2  free  transition at x/c =  0.8137   45

   5   rms: 0.3118E+00   max: -.1259E+01   D at   50  2   RLX: 0.397
       a = -1.000      CL = -0.1295
      Cm =  0.0118     CD =  0.02225   =>   CDf =  0.00646    CDp =  0.01579

 MRCHDU: Convergence failed at  48  side 2    Res =  0.1509E+01
 MRCHDU: Convergence failed at  49  side 2    Res =  0.9733E+01
 MRCHDU: Convergence failed at  50  side 2    Res =  0.1430E+03
 MRCHDU: Convergence failed at  51  side 2    Res =  0.2235E+02
 MRCHDU: Convergence failed at  52  side 2    Res =  0.1146E+02
 Side 1  free  transition at x/c =  0.8566   45
 Side 2  free  transition at x/c =  0.8611   47

   6   rms: 0.1578E+00   max: 0.7722E+00   T at   50  2
       a = -1.000      CL = -0.0196
      Cm = -0.0079     CD =  0.01742   =>   CDf =  0.00647    CDp =  0.01095

 Side 1  free  transition at x/c =  0.8666   45
 Side 2  free  transition at x/c =  0.8404   46

   7   rms: 0.2966E-01   max: 0.1607E+00   D at   47  2
       a = -1.000      CL = -0.0510
      Cm = -0.0002     CD =  0.01998   =>   CDf =  0.00653    CDp =  0.01345

 Side 1  free  transition at x/c =  0.8636   45
 Side 2  free  transition at x/c =  0.8280   46

   8   rms: 0.1209E-01   max: -.8032E-01   D at   47  2
       a = -1.000      CL = -0.0586
      Cm =  0.0010     CD =  0.01986   =>   CDf =  0.00652    CDp =  0.01334

 Side 1  free  transition at x/c =  0.8632   45
 Side 2  free  transition at x/c =  0.8316   46

   9   rms: 0.6886E-03   max: -.4292E-02   D at   46  2
       a = -1.000      CL = -0.0579
      Cm =  0.0009     CD =  0.01986   =>   CDf =  0.00651    CDp =  0.01334

 Side 1  free  transition at x/c =  0.8632   45
 Side 2  free  transition at x/c =  0.8316   46

  10   rms: 0.4543E-05   max: 0.2797E-04   D at   54  2
       a = -1.000      CL = -0.0579
      Cm =  0.0009     CD =  0.01986   =>   CDf =  0.00651    CDp =  0.01334
 plradd ia,ip,cpol           20          49  0.12285245    

 Point added to stored polar  1
 Save file unspecified or not available
 Dump file unspecified or not available

.OPERva   c>  
.OPERva   c>  
.OPERva   c>   Calculating wake trajectory ...
 Calculating source influence matrix ...

 Solving BL system ...

 Side 1  free  transition at x/c =  0.8632   45
 Side 2  free  transition at x/c =  0.8316   46

   1   rms: 0.5223E-01   max: 0.1373E+00   D at   49  2
       a = -0.800      CL = -0.0089
      Cm = -0.0025     CD =  0.01986   =>   CDf =  0.00651    CDp =  0.01335

 Side 1  free  transition at x/c =  0.8558   45
 Side 2  free  transition at x/c =  0.8411   46

   2   rms: 0.6841E-02   max: -.3772E-01   D at   48  2
       a = -0.800      CL = -0.0105
      Cm = -0.0023     CD =  0.01983   =>   CDf =  0.00655    CDp =  0.01328

 Side 1  free  transition at x/c =  0.8563   45
 Side 2  free  transition at x/c =  0.8425   46

   3   rms: 0.1349E-03   max: 0.1148E-02   D at   48  2
       a = -0.800      CL = -0.0104
      Cm = -0.0023     CD =  0.01982   =>   CDf =  0.00655    CDp =  0.01327

 Side 1  free  transition at x/c =  0.8563   45
 Side 2  free  transition at x/c =  0.8424   46

   4   rms: 0.1348E-05   max: -.7727E-05   D at   45  1
       a = -0.800      CL = -0.0104
      Cm = -0.0023     CD =  0.01982   =>   CDf =  0.00655    CDp =  0.01327
 plradd ia,ip,cpol           21          49  0.14355367    

 Point added to stored polar  1
 Save file unspecified or not available
 Dump file unspecified or not available

.OPERva   c>  
.OPERva   c>  
.OPERva   c>   Calculating wake trajectory ...
 Calculating source influence matrix ...

 Solving BL system ...

 Side 1  free  transition at x/c =  0.8563   45
 Side 2  free  transition at x/c =  0.8424   46

   1   rms: 0.4826E-01   max: -.1423E+00   T at   46  2
       a = -0.600      CL =  0.0326
      Cm = -0.0048     CD =  0.01968   =>   CDf =  0.00664    CDp =  0.01305

 Side 1  free  transition at x/c =  0.8501   45
 Side 2  free  transition at x/c =  0.8538   45
 idif Ue xi dudx           1  0.22156972      4.96780872E-03   44.601097    
 Uenew xinew           2  5.58908843E-02  1.25312805E-03

   2   rms: 0.9858E-01   max: -.4011E+00   D at   50  2
       a = -0.600      CL = -0.0667
      Cm =  0.0111     CD =  0.01969   =>   CDf =  0.00658    CDp =  0.01311

 MRCHDU: Convergence failed at  48  side 2    Res =  0.3524E+01
 MRCHDU: Convergence failed at  49  side 2    Res =  0.1292E+02
 MRCHDU: Convergence failed at  50  side 2    Res =  0.7363E+01
 MRCHDU: Convergence failed at  51  side 2    Res =  0.7167E+01
 MRCHDU: Convergence failed at  52  side 2    Res =  0.8063E+01
 Side 1  free  transition at x/c =  0.8299   44
 Side 2  free  transition at x/c =  0.8916   48

   3   rms: 0.2190E+00   max: 0.1503E+01   C at   48  2   RLX: 0.998
       a = -0.600      CL =  0.0396
      Cm = -0.0053     CD =  0.01734   =>   CDf =  0.00660    CDp =  0.01074

 Side 1  free  transition at x/c =  0.8430   45
 Side 2  free  transition at x/c =  0.8406   45
 idif Ue xi dudx           1  0.20442727      4.55856323E-03   44.844673    
 Uenew xinew           2  3.78436372E-02  8.43882561E-04

   4   rms: 0.1178E+00   max: -.6078E+00   D at   51  2   RLX: 0.823
       a = -0.600      CL = -0.0446
      Cm =  0.0084     CD =  0.02103   =>   CDf =  0.00650    CDp =  0.01453

 Side 1  free  transition at x/c =  0.8359   44
 Side 2  free  transition at x/c =  0.8739   47

   5   rms: 0.6640E-01   max: 0.4071E+00   D at   48  2
       a = -0.600      CL =  0.0103
      Cm = -0.0012     CD =  0.01962   =>   CDf =  0.00665    CDp =  0.01297

 Side 1  free  transition at x/c =  0.8406   45
 Side 2  free  transition at x/c =  0.8561   46

   6   rms: 0.9376E-02   max: -.7843E-01   D at   46  2
       a = -0.600      CL =  0.0067
      Cm = -0.0007     CD =  0.01984   =>   CDf =  0.00657    CDp =  0.01327

 Side 1  free  transition at x/c =  0.8399   45
 Side 2  free  transition at x/c =  0.8573   46

   7   rms: 0.1048E-02   max: 0.1035E-01   D at    4  1
       a = -0.600      CL =  0.0068
      Cm = -0.0007     CD =  0.01983   =>   CDf =  0.00658    CDp =  0.01325

 Side 1  free  transition at x/c =  0.8400   45
 Side 2  free  transition at x/c =  0.8573   46

   8   rms: 0.1110E-05   max: 0.7385E-05   D at    6  1
       a = -0.600      CL =  0.0068
      Cm = -0.0007     CD =  0.01983   =>   CDf =  0.00658    CDp =  0.01325
 plradd ia,ip,cpol           22          50  0.12416186    

 Point added to stored polar  1
 Save file unspecified or not available
 Dump file unspecified or not available

.OPERva   c>  
.OPERva   c>  
.OPERva   c>   Calculating wake trajectory ...
 Calculating source influence matrix ...

 Solving BL system ...

 Side 1  free  transition at x/c =  0.8400   45
 Side 2  free  transition at x/c =  0.8573   46

   1   rms: 0.5025E-01   max: 0.1372E+00   D at   49  2
       a = -0.400      CL =  0.0529
      Cm = -0.0037     CD =  0.01985   =>   CDf =  0.00658    CDp =  0.01328

 Side 1  free  transition at x/c =  0.8280   45
 Side 2  free  transition at x/c =  0.8637   46

   2   rms: 0.7696E-02   max: -.4871E-01   D at   45  1
       a = -0.400      CL =  0.0554
      Cm = -0.0041     CD =  0.01981   =>   CDf =  0.00662    CDp =  0.01319

 Side 1  free  transition at x/c =  0.8297   45
 Side 2  free  transition at x/c =  0.8641   46

   3   rms: 0.1953E-03   max: -.1492E-02   D at   51  1
       a = -0.400      CL =  0.0552
      Cm = -0.0040     CD =  0.01981   =>   CDf =  0.00662    CDp =  0.01319

 Side 1  free  transition at x/c =  0.8297   45
 Side 2  free  transition at x/c =  0.8641   46

   4   rms: 0.1039E-05   max: -.5481E-05   T at   45  1
       a = -0.400      CL =  0.0552
      Cm = -0.0040     CD =  0.01981   =>   CDf =  0.00662    CDp =  0.01319
 plradd ia,ip,cpol           23          50  5.35373539E-02

 Point added to stored polar  1
 Save file unspecified or not available
 Dump file unspecified or not available

.OPERva   c>  
.OPERva   c>  
.OPERva   c>   Calculating wake trajectory ...
 Calculating source influence matrix ...

 Solving BL system ...

 Side 1  free  transition at x/c =  0.8297   45
 Side 2  free  transition at x/c =  0.8641   46

   1   rms: 0.5235E-01   max: 0.1112E+00   D at   50  2
       a = -0.200      CL =  0.1038
      Cm = -0.0074     CD =  0.01971   =>   CDf =  0.00662    CDp =  0.01309

 Side 1  free  transition at x/c =  0.8209   44
 Side 2  free  transition at x/c =  0.8715   46

   2   rms: 0.1528E-01   max: 0.7450E-01   D at   46  1
       a = -0.200      CL =  0.0888
      Cm = -0.0051     CD =  0.01990   =>   CDf =  0.00668    CDp =  0.01322

 Side 1  free  transition at x/c =  0.8153   44
 Side 2  free  transition at x/c =  0.8744   46

   3   rms: 0.1908E-02   max: -.1363E-01   D at   46  1
       a = -0.200      CL =  0.0904
      Cm = -0.0053     CD =  0.01985   =>   CDf =  0.00666    CDp =  0.01320

 Side 1  free  transition at x/c =  0.8162   44
 Side 2  free  transition at x/c =  0.8743   46

   4   rms: 0.4250E-04   max: -.2179E-03   D at   46  1
       a = -0.200      CL =  0.0904
      Cm = -0.0054     CD =  0.01985   =>   CDf =  0.00666    CDp =  0.01319
 plradd ia,ip,cpol           24          50  5.35373539E-02

 Point added to stored polar  1
 Save file unspecified or not available
 Dump file unspecified or not available

.OPERva   c>  
.OPERva   c>  
.OPERva   c>   Calculating wake trajectory ...
 Calculating source influence matrix ...

 Solving BL system ...

 Side 1  free  transition at x/c =  0.8162   44
 Side 2  free  transition at x/c =  0.8743   46

   1   rms: 0.3319E-01   max: 0.1924E+00   T at   44  1
       a =  0.000      CL =  0.1086
      Cm = -0.0040     CD =  0.01993   =>   CDf =  0.00666    CDp =  0.01327

 Side 1  free  transition at x/c =  0.7964   44
 Side 2  free  transition at x/c =  0.8878   47

   2   rms: 0.1447E-01   max: -.1234E+00   D at   45  1
       a =  0.000      CL =  0.1157
      Cm = -0.0050     CD =  0.01970   =>   CDf =  0.00673    CDp =  0.01297

 Side 1  free  transition at x/c =  0.8012   44
 Side 2  free  transition at x/c =  0.8874   47

   3   rms: 0.1128E-02   max: -.6915E-02   D at   44  1
       a =  0.000      CL =  0.1147
      Cm = -0.0049     CD =  0.01973   =>   CDf =  0.00671    CDp =  0.01302

 Side 1  free  transition at x/c =  0.8011   44
 Side 2  free  transition at x/c =  0.8874   47

   4   rms: 0.5525E-05   max: -.3069E-04   D at   51  1
       a =  0.000      CL =  0.1147
      Cm = -0.0049     CD =  0.01973   =>   CDf =  0.00671    CDp =  0.01302
 plradd ia,ip,cpol           25          50  5.35373539E-02

 Point added to stored polar  1
 Save file unspecified or not available
 Dump file unspecified or not available

.OPERva   c>  
.OPERva   c>  
.OPERva   c>   Calculating wake trajectory ...
 Calculating source influence matrix ...

 Solving BL system ...

 Side 1  free  transition at x/c =  0.8011   44
 Side 2  free  transition at x/c =  0.8874   47

   1   rms: 0.5384E-01   max: 0.1143E+00   D at   51  2
       a =  0.200      CL =  0.1648
      Cm = -0.0086     CD =  0.01960   =>   CDf =  0.00679    CDp =  0.01280

 Side 1  free  transition at x/c =  0.7896   44
 Side 2  free  transition at x/c =  0.8921   46

   2   rms: 0.6975E-02   max: -.4368E-01   C at   44  1
       a =  0.200      CL =  0.1595
      Cm = -0.0079     CD =  0.01975   =>   CDf =  0.00679    CDp =  0.01295

 Side 1  free  transition at x/c =  0.7864   44
 Side 2  free  transition at x/c =  0.8932   46

   3   rms: 0.9936E-03   max: 0.8010E-02   D at    4  1
       a =  0.200      CL =  0.1599
      Cm = -0.0080     CD =  0.01973   =>   CDf =  0.00678    CDp =  0.01296

 Side 1  free  transition at x/c =  0.7867   44
 Side 2  free  transition at x/c =  0.8931   46

   4   rms: 0.5621E-05   max: -.4038E-04   D at   46  2
       a =  0.200      CL =  0.1599
      Cm = -0.0080     CD =  0.01973   =>   CDf =  0.00678    CDp =  0.01296
 plradd ia,ip,cpol           26          51  4.47126329E-02

 Point added to stored polar  1
 Save file unspecified or not available
 Dump file unspecified or not available

.OPERva   c>  
.OPERva   c>  
.OPERva   c>   Calculating wake trajectory ...
 Calculating source influence matrix ...

 Solving BL system ...

 Side 1  free  transition at x/c =  0.7867   44
 Side 2  free  transition at x/c =  0.8931   46

   1   rms: 0.4385E-01   max: 0.2055E+00   T at   44  1
       a =  0.400      CL =  0.1967
      Cm = -0.0102     CD =  0.01990   =>   CDf =  0.00678    CDp =  0.01312

 Side 1  free  transition at x/c =  0.7637   44
 Side 2  free  transition at x/c =  0.9007   46

   2   rms: 0.1695E-01   max: -.1396E+00   D at   45  1
       a =  0.400      CL =  0.2002
      Cm = -0.0104     CD =  0.01967   =>   CDf =  0.00688    CDp =  0.01278

 Side 1  free  transition at x/c =  0.7693   44
 Side 2  free  transition at x/c =  0.9011   46

   3   rms: 0.1289E-02   max: -.9315E-02   D at   47  1
       a =  0.400      CL =  0.1995
      Cm = -0.0103     CD =  0.01970   =>   CDf =  0.00684    CDp =  0.01287

 Side 1  free  transition at x/c =  0.7690   44
 Side 2  free  transition at x/c =  0.9012   46

   4   rms: 0.7969E-05   max: -.7151E-04   D at   44  1
       a =  0.400      CL =  0.1995
      Cm = -0.0103     CD =  0.01970   =>   CDf =  0.00684    CDp =  0.01286
 plradd ia,ip,cpol           27          51  4.47126329E-02

 Point added to stored polar  1
 Save file unspecified or not available
 Dump file unspecified or not available

.OPERva   c>  
.OPERva   c>  
.OPERva   c>   Calculating wake trajectory ...
 Calculating source influence matrix ...

 Solving BL system ...

 Side 1  free  transition at x/c =  0.7690   44
 Side 2  free  transition at x/c =  0.9012   46

   1   rms: 0.4488E-01   max: -.1360E+00   T at   46  2
       a =  0.600      CL =  0.2360
      Cm = -0.0119     CD =  0.01956   =>   CDf =  0.00684    CDp =  0.01272

 Side 1  free  transition at x/c =  0.7557   43
 Side 2  free  transition at x/c =  0.9102   46

   2   rms: 0.1926E-01   max: -.9657E-01   T at   46  2
       a =  0.600      CL =  0.2175
      Cm = -0.0090     CD =  0.01973   =>   CDf =  0.00694    CDp =  0.01279

 Side 1  free  transition at x/c =  0.7532   43
 Side 2  free  transition at x/c =  0.9161   47

   3   rms: 0.6706E-02   max: 0.4193E-01   D at   48  2
       a =  0.600      CL =  0.2188
      Cm = -0.0092     CD =  0.01966   =>   CDf =  0.00692    CDp =  0.01274

 Side 1  free  transition at x/c =  0.7532   43
 Side 2  free  transition at x/c =  0.9154   47

   4   rms: 0.7221E-04   max: -.5923E-03   D at   52  2
       a =  0.600      CL =  0.2188
      Cm = -0.0092     CD =  0.01968   =>   CDf =  0.00692    CDp =  0.01276
 plradd ia,ip,cpol           28          51  4.47126329E-02

 Point added to stored polar  1
 Save file unspecified or not available
 Dump file unspecified or not available

.OPERva   c>  
.OPERva   c>  
.OPERva   c>   Calculating wake trajectory ...
 Calculating source influence matrix ...

 Solving BL system ...

 Side 1  free  transition at x/c =  0.7532   43
 Side 2  free  transition at x/c =  0.9154   47

   1   rms: 0.5012E-01   max: -.1095E+00   T at   47  2
       a =  0.800      CL =  0.2658
      Cm = -0.0134     CD =  0.01966   =>   CDf =  0.00692    CDp =  0.01274

 Side 1  free  transition at x/c =  0.7297   42
 Side 2  free  transition at x/c =  0.9200   47

   2   rms: 0.1926E-01   max: -.1868E+00   D at   43  1
       a =  0.800      CL =  0.2666
      Cm = -0.0127     CD =  0.01951   =>   CDf =  0.00708    CDp =  0.01243

 Side 1  free  transition at x/c =  0.7403   43
 Side 2  free  transition at x/c =  0.9201   47

   3   rms: 0.1531E-01   max: 0.1808E+00   D at   43  1
       a =  0.800      CL =  0.2654
      Cm = -0.0129     CD =  0.01953   =>   CDf =  0.00697    CDp =  0.01256

 Side 1  free  transition at x/c =  0.7352   43
 Side 2  free  transition at x/c =  0.9206   47

   4   rms: 0.1834E-02   max: -.1304E-01   D at   46  1
       a =  0.800      CL =  0.2647
      Cm = -0.0128     CD =  0.01957   =>   CDf =  0.00700    CDp =  0.01257

 Side 1  free  transition at x/c =  0.7345   43
 Side 2  free  transition at x/c =  0.9206   47

   5   rms: 0.3123E-04   max: -.3237E-03   D at   46  1
       a =  0.800      CL =  0.2647
      Cm = -0.0128     CD =  0.01957   =>   CDf =  0.00702    CDp =  0.01256
 plradd ia,ip,cpol           29          51  4.47126329E-02

 Point added to stored polar  1
 Save file unspecified or not available
 Dump file unspecified or not available

.OPERva   c>  
.OPERva   c>  
.OPERva   c>   Calculating wake trajectory ...
 Calculating source influence matrix ...

 Solving BL system ...

 Side 1  free  transition at x/c =  0.7345   43
 Side 2  free  transition at x/c =  0.9206   47

   1   rms: 0.5086E-01   max: -.1143E+00   T at   47  2
       a =  1.000      CL =  0.3084
      Cm = -0.0158     CD =  0.01942   =>   CDf =  0.00710    CDp =  0.01232

 Side 1  free  transition at x/c =  0.7197   43
 Side 2  free  transition at x/c =  0.9268   46

   2   rms: 0.1126E-01   max: 0.1014E+00   D at   44  1
       a =  1.000      CL =  0.3020
      Cm = -0.0153     CD =  0.01961   =>   CDf =  0.00708    CDp =  0.01253

 Side 1  free  transition at x/c =  0.7132   43
 Side 2  free  transition at x/c =  0.9290   46

   3   rms: 0.1857E-02   max: -.1327E-01   D at   44  1
       a =  1.000      CL =  0.3023
      Cm = -0.0153     CD =  0.01957   =>   CDf =  0.00709    CDp =  0.01248

 Side 1  free  transition at x/c =  0.7141   43
 Side 2  free  transition at x/c =  0.9290   46

   4   rms: 0.1892E-04   max: -.1308E-03   D at   46  1
       a =  1.000      CL =  0.3023
      Cm = -0.0153     CD =  0.01957   =>   CDf =  0.00708    CDp =  0.01249
 plradd ia,ip,cpol           30          52  4.47126329E-02

 Point added to stored polar  1
 Save file unspecified or not available
 Dump file unspecified or not available

.OPERva   c>  
.OPERva   c>  
.OPERva   c>   Calculating wake trajectory ...
 Calculating source influence matrix ...

 Solving BL system ...

 Side 1  free  transition at x/c =  0.7140   43
 Side 2  free  transition at x/c =  0.9290   46

   1   rms: 0.4167E-01   max: 0.1921E+00   T at   43  1
       a =  1.200      CL =  0.3358
      Cm = -0.0169     CD =  0.01951   =>   CDf =  0.00708    CDp =  0.01243

 Side 1  free  transition at x/c =  0.6951   42
 Side 2  free  transition at x/c =  0.9385   46

   2   rms: 0.1364E-01   max: -.6529E-01   D at   43  1
       a =  1.200      CL =  0.3272
      Cm = -0.0152     CD =  0.01956   =>   CDf =  0.00724    CDp =  0.01232

 Side 1  free  transition at x/c =  0.6982   42
 Side 2  free  transition at x/c =  0.9413   46

   3   rms: 0.1770E-02   max: -.1124E-01   T at   46  2
       a =  1.200      CL =  0.3255
      Cm = -0.0149     CD =  0.01956   =>   CDf =  0.00724    CDp =  0.01232

 Side 1  free  transition at x/c =  0.6984   42
 Side 2  free  transition at x/c =  0.9418   46

   4   rms: 0.1148E-03   max: -.8289E-03   T at   46  2
       a =  1.200      CL =  0.3253
      Cm = -0.0149     CD =  0.01956   =>   CDf =  0.00724    CDp =  0.01232

 Side 1  free  transition at x/c =  0.6984   42
 Side 2  free  transition at x/c =  0.9418   46

   5   rms: 0.1564E-05   max: 0.1005E-04   C at   42  1
       a =  1.200      CL =  0.3253
      Cm = -0.0149     CD =  0.01956   =>   CDf =  0.00724    CDp =  0.01232
 plradd ia,ip,cpol           31          52  4.47126329E-02

 Point added to stored polar  1
 Save file unspecified or not available
 Dump file unspecified or not available

.OPERva   c>  
.OPERva   c>  
.OPERva   c>   Calculating wake trajectory ...
 Calculating source influence matrix ...

 Solving BL system ...

 Side 1  free  transition at x/c =  0.6984   42
 Side 2  free  transition at x/c =  0.9418   46

   1   rms: 0.4875E-01   max: -.5221E+00   T at   46  2   RLX: 0.958
       a =  1.400      CL =  0.3100
      Cm = -0.0083     CD =  0.01991   =>   CDf =  0.00724    CDp =  0.01267

 Side 1  free  transition at x/c =  0.6818   42
 Side 2  free  transition at x/c =  0.9729   48

   2   rms: 0.9176E-01   max: 0.8632E+00   D at   49  2
       a =  1.400      CL =  0.3378
      Cm = -0.0127     CD =  0.01905   =>   CDf =  0.00726    CDp =  0.01179

 Side 1  free  transition at x/c =  0.6798   42
 Side 2  free  transition at x/c =  0.9584   47

   3   rms: 0.4392E-01   max: 0.2554E+00   T at   47  2
       a =  1.400      CL =  0.3772
      Cm = -0.0202     CD =  0.01930   =>   CDf =  0.00725    CDp =  0.01205

 Side 1  free  transition at x/c =  0.6734   42
 Side 2  free  transition at x/c =  0.9443   47

   4   rms: 0.1972E-01   max: -.1163E+00   D at   49  2
       a =  1.400      CL =  0.3671
      Cm = -0.0184     CD =  0.01944   =>   CDf =  0.00730    CDp =  0.01214

 Side 1  free  transition at x/c =  0.6754   42
 Side 2  free  transition at x/c =  0.9483   47

   5   rms: 0.1771E-02   max: -.1487E-01   D at   47  2
       a =  1.400      CL =  0.3664
      Cm = -0.0183     CD =  0.01946   =>   CDf =  0.00728    CDp =  0.01218

 Side 1  free  transition at x/c =  0.6755   42
 Side 2  free  transition at x/c =  0.9486   47

   6   rms: 0.3931E-05   max: 0.4401E-04   D at   51  2
       a =  1.400      CL =  0.3664
      Cm = -0.0183     CD =  0.01946   =>   CDf =  0.00728    CDp =  0.01218
 plradd ia,ip,cpol           32          52  4.47126329E-02

 Point added to stored polar  1
 Save file unspecified or not available
 Dump file unspecified or not available

.OPERva   c>  
.OPERva   c>  
.OPERva   c>   Calculating wake trajectory ...
 Calculating source influence matrix ...

 Solving BL system ...

 Side 1  free  transition at x/c =  0.6755   42
 Side 2  free  transition at x/c =  0.9486   47

   1   rms: 0.4850E-01   max: 0.2320E+00   T at   42  1
       a =  1.600      CL =  0.4070
      Cm = -0.0212     CD =  0.01931   =>   CDf =  0.00728    CDp =  0.01203

 Side 1  free  transition at x/c =  0.6579   41
 Side 2  free  transition at x/c =  0.9557   47

   2   rms: 0.1007E-01   max: -.7702E-01   D at   41  1
       a =  1.600      CL =  0.4023
      Cm = -0.0207     CD =  0.01944   =>   CDf =  0.00740    CDp =  0.01204

 Side 1  free  transition at x/c =  0.6544   41
 Side 2  free  transition at x/c =  0.9576   47

   3   rms: 0.3926E-03   max: -.2788E-02   D at   41  1
       a =  1.600      CL =  0.4023
      Cm = -0.0207     CD =  0.01943   =>   CDf =  0.00738    CDp =  0.01205

 Side 1  free  transition at x/c =  0.6547   41
 Side 2  free  transition at x/c =  0.9576   47

   4   rms: 0.1597E-05   max: -.8836E-05   D at   53  1
       a =  1.600      CL =  0.4023
      Cm = -0.0207     CD =  0.01943   =>   CDf =  0.00738    CDp =  0.01205
 plradd ia,ip,cpol           33          52  4.47126329E-02

 Point added to stored polar  1
 Save file unspecified or not available
 Dump file unspecified or not available

.OPERva   c>  
.OPERva   c>  
.OPERva   c>   Calculating wake trajectory ...
 Calculating source influence matrix ...

 Solving BL system ...

 Side 1  free  transition at x/c =  0.6547   41
 Side 2  free  transition at x/c =  0.9576   47

   1   rms: 0.4016E-01   max: 0.1998E+00   T at   41  1
       a =  1.800      CL =  0.4334
      Cm = -0.0223     CD =  0.01941   =>   CDf =  0.00744    CDp =  0.01196

 Side 1  free  transition at x/c =  0.6327   41
 Side 2  free  transition at x/c =  0.9676   47

   2   rms: 0.1238E-01   max: -.1255E+00   D at   42  1
       a =  1.800      CL =  0.4310
      Cm = -0.0216     CD =  0.01942   =>   CDf =  0.00757    CDp =  0.01185

 Side 1  free  transition at x/c =  0.6365   42
 Side 2  free  transition at x/c =  0.9681   47

   3   rms: 0.4001E-02   max: -.5043E-01   D at   41  1
       a =  1.800      CL =  0.4310
      Cm = -0.0216     CD =  0.01941   =>   CDf =  0.00759    CDp =  0.01182

 Side 1  free  transition at x/c =  0.6365   42
 Side 2  free  transition at x/c =  0.9682   47

   4   rms: 0.3073E-03   max: 0.2600E-02   D at   42  1
       a =  1.800      CL =  0.4310
      Cm = -0.0216     CD =  0.01941   =>   CDf =  0.00754    CDp =  0.01187

 Side 1  free  transition at x/c =  0.6364   42
 Side 2  free  transition at x/c =  0.9682   47

   5   rms: 0.4256E-05   max: -.3985E-04   D at    4  1
       a =  1.800      CL =  0.4310
      Cm = -0.0216     CD =  0.01941   =>   CDf =  0.00755    CDp =  0.01187
 plradd ia,ip,cpol           34          53  4.47126329E-02

 Point added to stored polar  1
 Save file unspecified or not available
 Dump file unspecified or not available

.OPERva   c>  
.OPERva   c>  
.OPERva   c>   Calculating wake trajectory ...
 Calculating source influence matrix ...

 Solving BL system ...

 Side 1  free  transition at x/c =  0.6364   42
 Side 2  free  transition at x/c =  0.9682   47

   1   rms: 0.5338E-01   max: 0.2501E+00   T at   42  1
       a =  2.000      CL =  0.4751
      Cm = -0.0253     CD =  0.01934   =>   CDf =  0.00755    CDp =  0.01179

 Side 1  free  transition at x/c =  0.6174   41
 Side 2  free  transition at x/c =  0.9733   47

   2   rms: 0.1511E-01   max: -.1553E+00   D at   41  1
       a =  2.000      CL =  0.4720
      Cm = -0.0254     CD =  0.01925   =>   CDf =  0.00754    CDp =  0.01170

 Side 1  free  transition at x/c =  0.6109   41
 Side 2  free  transition at x/c =  0.9753   47

   3   rms: 0.3047E-02   max: -.3245E-01   D at   41  1
       a =  2.000      CL =  0.4718
      Cm = -0.0253     CD =  0.01924   =>   CDf =  0.00761    CDp =  0.01162

 Side 1  free  transition at x/c =  0.6120   41
 Side 2  free  transition at x/c =  0.9754   47

   4   rms: 0.4895E-04   max: -.4377E-03   D at   43  1
       a =  2.000      CL =  0.4718
      Cm = -0.0253     CD =  0.01924   =>   CDf =  0.00759    CDp =  0.01164
 plradd ia,ip,cpol           35          53  4.47126329E-02

 Point added to stored polar  1
 Save file unspecified or not available
 Dump file unspecified or not available

.OPERva   c>  
.OPERva   c>  
.OPERva   c>   Calculating wake trajectory ...
 Calculating source influence matrix ...

 Solving BL system ...

 Side 1  free  transition at x/c =  0.6120   41
 Side 2  free  transition at x/c =  0.9754   47

   1   rms: 0.4772E-01   max: 0.2410E+00   T at   41  1
       a =  2.200      CL =  0.5098
      Cm = -0.0281     CD =  0.01909   =>   CDf =  0.00760    CDp =  0.01149

 Side 1  free  transition at x/c =  0.5930   40
 Side 2  free  transition at x/c =  0.9830   47

   2   rms: 0.1008E-01   max: -.9894E-01   D at   40  1
       a =  2.200      CL =  0.5066
      Cm = -0.0278     CD =  0.01919   =>   CDf =  0.00771    CDp =  0.01147

 Side 1  free  transition at x/c =  0.5892   40
 Side 2  free  transition at x/c =  0.9845   47

   3   rms: 0.6869E-03   max: -.5790E-02   D at   40  1
       a =  2.200      CL =  0.5066
      Cm = -0.0278     CD =  0.01918   =>   CDf =  0.00770    CDp =  0.01148

 Side 1  free  transition at x/c =  0.5895   40
 Side 2  free  transition at x/c =  0.9845   47

   4   rms: 0.3306E-05   max: -.2377E-04   D at   42  1
       a =  2.200      CL =  0.5066
      Cm = -0.0278     CD =  0.01918   =>   CDf =  0.00769    CDp =  0.01148
 plradd ia,ip,cpol           36          53  4.47126329E-02

 Point added to stored polar  1
 Save file unspecified or not available
 Dump file unspecified or not available

.OPERva   c>  
.OPERva   c>  
.OPERva   c>   Calculating wake trajectory ...
 Calculating source influence matrix ...

 Solving BL system ...

 Side 1  free  transition at x/c =  0.5895   40
 Side 2  free  transition at x/c =  0.9845   47

   1   rms: 0.4255E-01   max: 0.2222E+00   T at   40  1
       a =  2.400      CL =  0.5384
      Cm = -0.0298     CD =  0.01912   =>   CDf =  0.00770    CDp =  0.01142

 Side 1  free  transition at x/c =  0.5665   39
 Side 2  free  transition at x/c =  0.9947   48

   2   rms: 0.1354E-01   max: 0.1005E+00   D at   48  2
       a =  2.400      CL =  0.5434
      Cm = -0.0307     CD =  0.01900   =>   CDf =  0.00791    CDp =  0.01109

 Side 1  free  transition at x/c =  0.5668   39
 Side 2  free  transition at x/c =  0.9920   48

   3   rms: 0.6208E-03   max: 0.5441E-02   D at   40  1
       a =  2.400      CL =  0.5432
      Cm = -0.0307     CD =  0.01905   =>   CDf =  0.00785    CDp =  0.01120

 Side 1  free  transition at x/c =  0.5665   39
 Side 2  free  transition at x/c =  0.9920   48

   4   rms: 0.3781E-05   max: 0.2450E-04   D at   48  2
       a =  2.400      CL =  0.5432
      Cm = -0.0307     CD =  0.01905   =>   CDf =  0.00785    CDp =  0.01120
 plradd ia,ip,cpol           37          53  4.47126329E-02

 Point added to stored polar  1
 Save file unspecified or not available
 Dump file unspecified or not available

.OPERva   c>  
.OPERva   c>  
.OPERva   c>   Calculating wake trajectory ...
 Calculating source influence matrix ...

 Solving BL system ...

 Side 1  free  transition at x/c =  0.5665   39
 Side 2  free  transition at x/c =  0.9920   48

   1   rms: 0.4656E-01   max: 0.2561E+00   T at   39  1
       a =  2.600      CL =  0.5829
      Cm = -0.0345     CD =  0.01883   =>   CDf =  0.00785    CDp =  0.01097

 Side 1  free  transition at x/c =  0.5363   38
 Side 2  free  transition at x/c =  0.9991   48

   2   rms: 0.1815E-01   max: -.1766E+00   D at   39  1
       a =  2.600      CL =  0.5810
      Cm = -0.0337     CD =  0.01891   =>   CDf =  0.00809    CDp =  0.01082

 Side 1  free  transition at x/c =  0.5423   38
 Side 2  free  transition at x/c =  0.9993   48

   3   rms: 0.5216E-02   max: -.6002E-01   C at   38  1
       a =  2.600      CL =  0.5809
      Cm = -0.0338     CD =  0.01891   =>   CDf =  0.00811    CDp =  0.01080

 Side 1  free  transition at x/c =  0.5420   38
 Side 2  free  transition at x/c =  0.9994   48

   4   rms: 0.5788E-02   max: -.6063E-01   C at   38  1
       a =  2.600      CL =  0.5809
      Cm = -0.0338     CD =  0.01891   =>   CDf =  0.00811    CDp =  0.01080

 Side 1  free  transition at x/c =  0.5420   38
 Side 2  free  transition at x/c =  0.9994   48

   5   rms: 0.5746E-02   max: -.6058E-01   C at   38  1
       a =  2.600      CL =  0.5809
      Cm = -0.0338     CD =  0.01891   =>   CDf =  0.00811    CDp =  0.01080

 Side 1  free  transition at x/c =  0.5420   38
 Side 2  free  transition at x/c =  0.9994   48

   6   rms: 0.5750E-02   max: -.6058E-01   C at   38  1
       a =  2.600      CL =  0.5809
      Cm = -0.0338     CD =  0.01891   =>   CDf =  0.00811    CDp =  0.01080

 Side 1  free  transition at x/c =  0.5420   38
 Side 2  free  transition at x/c =  0.9994   48

   7   rms: 0.5750E-02   max: -.6059E-01   C at   38  1
       a =  2.600      CL =  0.5809
      Cm = -0.0338     CD =  0.01891   =>   CDf =  0.00811    CDp =  0.01080

 Side 1  free  transition at x/c =  0.5420   38
 Side 2  free  transition at x/c =  0.9994   48

   8   rms: 0.5750E-02   max: -.6058E-01   C at   38  1
       a =  2.600      CL =  0.5809
      Cm = -0.0338     CD =  0.01891   =>   CDf =  0.00811    CDp =  0.01080

 Side 1  free  transition at x/c =  0.5420   38
 Side 2  free  transition at x/c =  0.9994   48

   9   rms: 0.5750E-02   max: -.6058E-01   C at   38  1
       a =  2.600      CL =  0.5809
      Cm = -0.0338     CD =  0.01891   =>   CDf =  0.00811    CDp =  0.01080

 Side 1  free  transition at x/c =  0.5420   38
 Side 2  free  transition at x/c =  0.9994   48

  10   rms: 0.5750E-02   max: -.6058E-01   C at   38  1
       a =  2.600      CL =  0.5809
      Cm = -0.0338     CD =  0.01891   =>   CDf =  0.00811    CDp =  0.01080
 VISCAL:  Convergence failed

.OPERva   c>  
.OPERva   c>  
.OPERva   c>   Calculating wake trajectory ...
 Calculating source influence matrix ...

 Solving BL system ...

 Side 1  free  transition at x/c =  0.5420   38
 Side 2  free  transition at x/c =  0.9994   48

   1   rms: 0.5585E-01   max: -.4598E+00   C at   38  1
       a =  2.800      CL =  0.6194
      Cm = -0.0378     CD =  0.01866   =>   CDf =  0.00815    CDp =  0.01052

 Side 1  free  transition at x/c =  0.5083   38
 Side 2 forced transition at x/c =  1.0000   47

   2   rms: 0.3487E-01   max: -.2281E+00   D at   47  2
       a =  2.800      CL =  0.5974
      Cm = -0.0330     CD =  0.01900   =>   CDf =  0.00829    CDp =  0.01072

 Side 1  free  transition at x/c =  0.5280   39
 Side 2 forced transition at x/c =  1.0000   47

   3   rms: 0.1997E-01   max: 0.2116E+00   D at   39  1
       a =  2.800      CL =  0.5969
      Cm = -0.0331     CD =  0.01880   =>   CDf =  0.00791    CDp =  0.01089

 Side 1  free  transition at x/c =  0.5231   39
 Side 2 forced transition at x/c =  1.0000   47

   4   rms: 0.2800E-02   max: -.2441E-01   D at   41  1
       a =  2.800      CL =  0.5971
      Cm = -0.0332     CD =  0.01885   =>   CDf =  0.00801    CDp =  0.01084

 Side 1  free  transition at x/c =  0.5216   39
 Side 2 forced transition at x/c =  1.0000   47

   5   rms: 0.7533E-04   max: -.8673E-03   D at   41  1
       a =  2.800      CL =  0.5971
      Cm = -0.0332     CD =  0.01885   =>   CDf =  0.00803    CDp =  0.01082
 plradd ia,ip,cpol           38          54  3.71181071E-02

 Point added to stored polar  1
 Save file unspecified or not available
 Dump file unspecified or not available

.OPERva   c>  
.OPERva   c>  
.OPERva   c>   Calculating wake trajectory ...
 Calculating source influence matrix ...

 Solving BL system ...

 Side 1  free  transition at x/c =  0.5216   39
 Side 2 forced transition at x/c =  1.0000   47

   1   rms: 0.3286E-01   max: 0.1937E+00   T at   39  1
       a =  3.000      CL =  0.6117
      Cm = -0.0321     CD =  0.01884   =>   CDf =  0.00804    CDp =  0.01080

 Side 1  free  transition at x/c =  0.5051   38
 Side 2 forced transition at x/c =  1.0000   47

   2   rms: 0.5558E-02   max: -.6321E-01   D at   38  1
       a =  3.000      CL =  0.6117
      Cm = -0.0321     CD =  0.01887   =>   CDf =  0.00821    CDp =  0.01066

 Side 1  free  transition at x/c =  0.5034   38
 Side 2 forced transition at x/c =  1.0000   47

   3   rms: 0.7894E-04   max: 0.5193E-03   D at   39  1
       a =  3.000      CL =  0.6118
      Cm = -0.0321     CD =  0.01887   =>   CDf =  0.00816    CDp =  0.01071
 plradd ia,ip,cpol           39          54  3.71181071E-02

 Point added to stored polar  1
 Save file unspecified or not available
 Dump file unspecified or not available

.OPERva   c>  
.OPERva   c>  
.OPERva   c>   Calculating wake trajectory ...
 Calculating source influence matrix ...

 Solving BL system ...

 Side 1  free  transition at x/c =  0.5034   38
 Side 2 forced transition at x/c =  1.0000   47

   1   rms: 0.3058E-01   max: 0.1854E+00   T at   38  1
       a =  3.200      CL =  0.6261
      Cm = -0.0312     CD =  0.01888   =>   CDf =  0.00817    CDp =  0.01071

 Side 1  free  transition at x/c =  0.4813   38
 Side 2 forced transition at x/c =  1.0000   47

   2   rms: 0.1313E-01   max: -.1429E+00   D at   38  1
       a =  3.200      CL =  0.6261
      Cm = -0.0310     CD =  0.01885   =>   CDf =  0.00839    CDp =  0.01046

 Side 1  free  transition at x/c =  0.4852   38
 Side 2 forced transition at x/c =  1.0000   47

   3   rms: 0.8064E-03   max: -.8552E-02   D at   40  1
       a =  3.200      CL =  0.6263
      Cm = -0.0310     CD =  0.01888   =>   CDf =  0.00827    CDp =  0.01061

[...]

   6   rms: 0.1009E+00   max: -.5090E+00   D at   31  1   RLX: 0.982
       a = 13.800      CL =  0.6072
      Cm = -0.0081     CD =  0.16443   =>   CDf =  0.00665    CDp =  0.15778

 Side 1  free  transition at x/c =  0.1931   31
 Side 2 forced transition at x/c =  1.0000   44

   7   rms: 0.4367E-01   max: -.2236E+00   T at   31  1
       a = 13.800      CL =  0.6173
      Cm = -0.0075     CD =  0.16072   =>   CDf =  0.00658    CDp =  0.15414

 Side 1  free  transition at x/c =  0.1941   31
 Side 2 forced transition at x/c =  1.0000   44

   8   rms: 0.1271E-01   max: -.6276E-01   D at   31  1
       a = 13.800      CL =  0.6203
      Cm = -0.0072     CD =  0.16209   =>   CDf =  0.00656    CDp =  0.15553

 Side 1  free  transition at x/c =  0.1941   31
 Side 2 forced transition at x/c =  1.0000   44

   9   rms: 0.7419E-03   max: -.4887E-02   D at   57  2
       a = 13.800      CL =  0.6208
      Cm = -0.0072     CD =  0.16257   =>   CDf =  0.00655    CDp =  0.15602

 Side 1  free  transition at x/c =  0.1941   31
 Side 2 forced transition at x/c =  1.0000   44

  10   rms: 0.1012E-04   max: 0.3686E-04   D at   56  2
       a = 13.800      CL =  0.6208
      Cm = -0.0072     CD =  0.16257   =>   CDf =  0.00655    CDp =  0.15601
 plradd ia,ip,cpol           87          57  2.00598110E-02

 Point added to stored polar  1
 Save file unspecified or not available
 Dump file unspecified or not available

.OPERva   c>  
.OPERva   c>  
.OPERva   c>   Calculating wake trajectory ...
 Calculating source influence matrix ...

 Solving BL system ...

 Side 1  free  transition at x/c =  0.1941   31
 Side 2 forced transition at x/c =  1.0000   44

   1   rms: 0.4898E-01   max: 0.2321E+00   T at   31  1   RLX: 0.424
       a = 14.000      CL =  0.6319
      Cm = -0.0067     CD =  0.16411   =>   CDf =  0.00655    CDp =  0.15756

 Side 1  free  transition at x/c =  0.1935   31
 Side 2 forced transition at x/c =  1.0000   44

   2   rms: 0.3357E-01   max: 0.1485E+00   T at   31  1
       a = 14.000      CL =  0.6502
      Cm = -0.0056     CD =  0.16704   =>   CDf =  0.00654    CDp =  0.16050

 Side 1  free  transition at x/c =  0.1926   31
 Side 2 forced transition at x/c =  1.0000   44

   3   rms: 0.9097E-02   max: 0.3103E-01   T at   31  1
       a = 14.000      CL =  0.6529
      Cm = -0.0053     CD =  0.16858   =>   CDf =  0.00651    CDp =  0.16206

 Side 1  free  transition at x/c =  0.1924   31
 Side 2 forced transition at x/c =  1.0000   44

   4   rms: 0.2477E-02   max: 0.1290E-01   T at   31  1
       a = 14.000      CL =  0.6536
      Cm = -0.0052     CD =  0.16914   =>   CDf =  0.00651    CDp =  0.16263

 Side 1  free  transition at x/c =  0.1924   31
 Side 2 forced transition at x/c =  1.0000   44

   5   rms: 0.4895E-04   max: 0.2076E-03   D at   57  2
       a = 14.000      CL =  0.6535
      Cm = -0.0052     CD =  0.16912   =>   CDf =  0.00650    CDp =  0.16261
 plradd ia,ip,cpol           88          57  2.00598110E-02

 Point added to stored polar  1
 Save file unspecified or not available
 Dump file unspecified or not available

.OPERva   c>  
.OPERva   c>  
.OPERva   c>   Calculating wake trajectory ...
 Calculating source influence matrix ...

 Solving BL system ...

 Side 1  free  transition at x/c =  0.1924   31
 Side 2 forced transition at x/c =  1.0000   44

   1   rms: 0.1353E+00   max: 0.6505E+00   T at   31  1   RLX: 0.438
       a = 14.200      CL =  0.6777
      Cm = -0.0036     CD =  0.17670   =>   CDf =  0.00651    CDp =  0.17019

 Side 1  free  transition at x/c =  0.1919   30
 Side 2 forced transition at x/c =  1.0000   44

   2   rms: 0.2285E+00   max: 0.8884E+00   D at   31  1
       a = 14.200      CL =  0.5998
      Cm = -0.0105     CD =  0.19277   =>   CDf =  0.00647    CDp =  0.18629

 Side 1  free  transition at x/c =  0.1902   30
 Side 2 forced transition at x/c =  1.0000   44

   3   rms: 0.1133E+00   max: 0.5686E+00   D at   31  1
       a = 14.200      CL =  0.6064
      Cm = -0.0109     CD =  0.18097   =>   CDf =  0.00656    CDp =  0.17441

 Side 1  free  transition at x/c =  0.1908   30
 Side 2 forced transition at x/c =  1.0000   44

   4   rms: 0.6558E-01   max: -.2008E+00   T at   30  1
       a = 14.200      CL =  0.6485
      Cm = -0.0073     CD =  0.17304   =>   CDf =  0.00657    CDp =  0.16647

 Side 1  free  transition at x/c =  0.1902   30
 Side 2 forced transition at x/c =  1.0000   44

   5   rms: 0.9811E-01   max: 0.3990E+00   D at   31  1
       a = 14.200      CL =  0.6137
      Cm = -0.0104     CD =  0.17829   =>   CDf =  0.00652    CDp =  0.17176

 Side 1  free  transition at x/c =  0.1908   30
 Side 2 forced transition at x/c =  1.0000   44

   6   rms: 0.4019E-01   max: 0.1293E+00   T at   31  1
       a = 14.200      CL =  0.6386
      Cm = -0.0082     CD =  0.17262   =>   CDf =  0.00657    CDp =  0.16605

 Side 1  free  transition at x/c =  0.1912   30
 Side 2 forced transition at x/c =  1.0000   44

   7   rms: 0.2013E-01   max: 0.7715E-01   D at   31  1
       a = 14.200      CL =  0.6383
      Cm = -0.0083     CD =  0.17320   =>   CDf =  0.00654    CDp =  0.16665

 Side 1  free  transition at x/c =  0.1916   30
 Side 2 forced transition at x/c =  1.0000   44

   8   rms: 0.4783E-02   max: -.1759E-01   D at   31  1
       a = 14.200      CL =  0.6407
      Cm = -0.0080     CD =  0.17245   =>   CDf =  0.00655    CDp =  0.16590

 Side 1  free  transition at x/c =  0.1916   30
 Side 2 forced transition at x/c =  1.0000   44

   9   rms: 0.3421E-03   max: 0.1782E-02   D at   31  1
       a = 14.200      CL =  0.6407
      Cm = -0.0080     CD =  0.17262   =>   CDf =  0.00654    CDp =  0.16608

 Side 1  free  transition at x/c =  0.1916   30
 Side 2 forced transition at x/c =  1.0000   44

  10   rms: 0.1516E-04   max: 0.1244E-03   D at   57  2
       a = 14.200      CL =  0.6407
      Cm = -0.0080     CD =  0.17261   =>   CDf =  0.00654    CDp =  0.16606
 plradd ia,ip,cpol           89          57  2.00598110E-02

 Point added to stored polar  1
 Save file unspecified or not available
 Dump file unspecified or not available

.OPERva   c>  
.OPERva   c>  
.OPERva   c>   Calculating wake trajectory ...
 Calculating source influence matrix ...

 Solving BL system ...

 Side 1  free  transition at x/c =  0.1916   30
 Side 2 forced transition at x/c =  1.0000   44

   1   rms: 0.5203E-01   max: 0.1886E+00   T at   30  1   RLX: 0.397
       a = 14.400      CL =  0.6308
      Cm = -0.0096     CD =  0.17336   =>   CDf =  0.00655    CDp =  0.16681

 Side 1  free  transition at x/c =  0.1907   30
 Side 2 forced transition at x/c =  1.0000   44

   2   rms: 0.5811E-01   max: 0.2082E+00   T at   30  1
       a = 14.400      CL =  0.6026
      Cm = -0.0136     CD =  0.17486   =>   CDf =  0.00655    CDp =  0.16831

 Side 1  free  transition at x/c =  0.1858   30
 Side 2 forced transition at x/c =  1.0000   44

   3   rms: 0.3041E-01   max: -.1674E+00   D at   30  1
       a = 14.400      CL =  0.5885
      Cm = -0.0143     CD =  0.17186   =>   CDf =  0.00658    CDp =  0.16528

 Side 1  free  transition at x/c =  0.1848   30
 Side 2 forced transition at x/c =  1.0000   44

   4   rms: 0.3137E-02   max: -.3179E-01   D at   30  1
       a = 14.400      CL =  0.5887
      Cm = -0.0143     CD =  0.17035   =>   CDf =  0.00660    CDp =  0.16375

 Side 1  free  transition at x/c =  0.1848   30
 Side 2 forced transition at x/c =  1.0000   44

   5   rms: 0.1236E-03   max: 0.8055E-03   D at   56  2
       a = 14.400      CL =  0.5887
      Cm = -0.0143     CD =  0.17021   =>   CDf =  0.00661    CDp =  0.16361

 Side 1  free  transition at x/c =  0.1848   30
 Side 2 forced transition at x/c =  1.0000   44

   6   rms: 0.1893E-05   max: -.2956E-04   C at   44  2
       a = 14.400      CL =  0.5887
      Cm = -0.0143     CD =  0.17021   =>   CDf =  0.00661    CDp =  0.16361
 plradd ia,ip,cpol           90          57  2.00598110E-02

 Point added to stored polar  1
 Save file unspecified or not available
 Dump file unspecified or not available

.OPERva   c>  
.OPERva   c>  
.OPERva   c>   Calculating wake trajectory ...
 Calculating source influence matrix ...

 Solving BL system ...

 Side 1  free  transition at x/c =  0.1848   30
 Side 2 forced transition at x/c =  1.0000   44

   1   rms: 0.2333E-01   max: 0.3171E+00   T at   30  1   RLX: 0.381
       a = 14.600      CL =  0.5880
      Cm = -0.0150     CD =  0.17116   =>   CDf =  0.00661    CDp =  0.16455

 Side 1  free  transition at x/c =  0.1829   30
 Side 2 forced transition at x/c =  1.0000   44

   2   rms: 0.9892E-02   max: 0.1340E+00   T at   30  1
       a = 14.600      CL =  0.5910
      Cm = -0.0156     CD =  0.17251   =>   CDf =  0.00661    CDp =  0.16591

 Side 1  free  transition at x/c =  0.1806   30
 Side 2 forced transition at x/c =  1.0000   44

   3   rms: 0.1854E-02   max: -.1165E-01   D at   31  1
       a = 14.600      CL =  0.5915
      Cm = -0.0155     CD =  0.17228   =>   CDf =  0.00660    CDp =  0.16568

 Side 1  free  transition at x/c =  0.1807   30
 Side 2 forced transition at x/c =  1.0000   44

   4   rms: 0.1766E-03   max: -.9654E-03   D at   57  2
       a = 14.600      CL =  0.5916
      Cm = -0.0155     CD =  0.17240   =>   CDf =  0.00660    CDp =  0.16580

 Side 1  free  transition at x/c =  0.1807   30
 Side 2 forced transition at x/c =  1.0000   44

   5   rms: 0.1687E-05   max: -.1678E-04   D at   57  2
       a = 14.600      CL =  0.5916
      Cm = -0.0155     CD =  0.17240   =>   CDf =  0.00660    CDp =  0.16580
 plradd ia,ip,cpol           91          57  2.00598110E-02

 Point added to stored polar  1
 Save file unspecified or not available
 Dump file unspecified or not available

.OPERva   c>  
.OPERva   c>  
.OPERva   c>   Calculating wake trajectory ...
 Calculating source influence matrix ...

 Solving BL system ...

 Side 1  free  transition at x/c =  0.1807   30
 Side 2 forced transition at x/c =  1.0000   44

   1   rms: 0.1598E-01   max: 0.1923E+00   T at   30  1   RLX: 0.377
       a = 14.800      CL =  0.5934
      Cm = -0.0159     CD =  0.17338   =>   CDf =  0.00660    CDp =  0.16678

 Side 1  free  transition at x/c =  0.1794   30
 Side 2 forced transition at x/c =  1.0000   44

   2   rms: 0.1014E-01   max: 0.1102E+00   T at   30  1
       a = 14.800      CL =  0.5979
      Cm = -0.0164     CD =  0.17484   =>   CDf =  0.00660    CDp =  0.16824

 Side 1  free  transition at x/c =  0.1776   30
 Side 2 forced transition at x/c =  1.0000   44

   3   rms: 0.1151E-02   max: -.7465E-02   D at   31  1
       a = 14.800      CL =  0.5981
      Cm = -0.0163     CD =  0.17460   =>   CDf =  0.00659    CDp =  0.16800

 Side 1  free  transition at x/c =  0.1776   30
 Side 2 forced transition at x/c =  1.0000   44

   4   rms: 0.1198E-03   max: -.6208E-03   D at   57  2
       a = 14.800      CL =  0.5981
      Cm = -0.0163     CD =  0.17468   =>   CDf =  0.00659    CDp =  0.16808

 Side 1  free  transition at x/c =  0.1776   30
 Side 2 forced transition at x/c =  1.0000   44

   5   rms: 0.1405E-05   max: -.1514E-04   D at   57  2
       a = 14.800      CL =  0.5981
      Cm = -0.0163     CD =  0.17468   =>   CDf =  0.00659    CDp =  0.16808
 plradd ia,ip,cpol           92          57  2.00598110E-02

 Point added to stored polar  1
 Save file unspecified or not available
 Dump file unspecified or not available

.OPERva   c>  
.OPERva   c>  
.OPERva   c>   Calculating wake trajectory ...
 Calculating source influence matrix ...

 Solving BL system ...

 Side 1  free  transition at x/c =  0.1776   30
 Side 2 forced transition at x/c =  1.0000   44

   1   rms: 0.1751E-01   max: 0.1674E+00   T at   30  1   RLX: 0.372
       a = 15.000      CL =  0.6007
      Cm = -0.0166     CD =  0.17562   =>   CDf =  0.00660    CDp =  0.16903

 Side 1  free  transition at x/c =  0.1766   30
 Side 2 forced transition at x/c =  1.0000   44

   2   rms: 0.1150E-01   max: 0.1013E+00   T at   30  1
       a = 15.000      CL =  0.6066
      Cm = -0.0169     CD =  0.17709   =>   CDf =  0.00659    CDp =  0.17050

 Side 1  free  transition at x/c =  0.1751   30
 Side 2 forced transition at x/c =  1.0000   44

   3   rms: 0.1269E-02   max: -.8873E-02   D at   30  1
       a = 15.000      CL =  0.6067
      Cm = -0.0169     CD =  0.17689   =>   CDf =  0.00658    CDp =  0.17030

 Side 1  free  transition at x/c =  0.1752   30
 Side 2 forced transition at x/c =  1.0000   44

   4   rms: 0.1321E-03   max: -.6841E-03   D at   57  2
       a = 15.000      CL =  0.6068
      Cm = -0.0169     CD =  0.17697   =>   CDf =  0.00658    CDp =  0.17039

 Side 1  free  transition at x/c =  0.1752   30
 Side 2 forced transition at x/c =  1.0000   44

   5   rms: 0.1493E-05   max: -.1263E-04   D at   57  2
       a = 15.000      CL =  0.6068
      Cm = -0.0169     CD =  0.17697   =>   CDf =  0.00658    CDp =  0.17039
 plradd ia,ip,cpol           93          57  2.00598110E-02

 Point added to stored polar  1
 Save file unspecified or not available
 Dump file unspecified or not available

.OPERva   c>  
.OPERva   c>  
.OPERva   c>  
        airfoil                    Re           Mach       Ncrit  XtripT  XtripB     file
       ------------------------  ------------  ----------  -----  ------  ------    -------------------
 >  1  NACA 21016                1.000e5       0.100        9.00   1.000   1.000    

Enter polar output filename   s>  
.OPERva   c>  
 ==============================================================
 Polar  1
  
       XFOIL         Version 6.99
  
 Calculated polar for: NACA 21016                                      
  
 1 1 Reynolds number fixed          Mach number fixed         
  
 xtrf =   1.000 (top)        1.000 (bottom)  
 Mach =   0.100     Re =     0.100 e 6     Ncrit =   9.000
  
   alpha    CL        CD       CDp       CM     Top_Xtr  Bot_Xtr
  ------ -------- --------- --------- -------- -------- --------
  -5.000  -0.6399   0.01970   0.01123   0.0201   1.0000   0.2225
  -4.800  -0.6315   0.01900   0.01106   0.0220   1.0000   0.3122
  -4.600  -0.6212   0.01867   0.01106   0.0238   1.0000   0.3749
  -4.200  -0.5969   0.01850   0.01121   0.0269   1.0000   0.4548
  -4.000  -0.5838   0.01852   0.01132   0.0282   1.0000   0.4844
  -3.800  -0.5500   0.01864   0.01158   0.0259   0.9932   0.5224
  -3.600  -0.5122   0.01881   0.01181   0.0229   0.9858   0.5530
  -3.400  -0.4787   0.01894   0.01204   0.0208   0.9762   0.5853
  -3.200  -0.4388   0.01917   0.01236   0.0177   0.9687   0.6173
  -3.000  -0.4107   0.01927   0.01255   0.0170   0.9579   0.6454
  -2.800  -0.3761   0.01947   0.01286   0.0153   0.9485   0.6758
  -2.600  -0.3373   0.01965   0.01308   0.0128   0.9412   0.7025
  -2.400  -0.3129   0.01968   0.01316   0.0130   0.9283   0.7209
  -2.200  -0.2732   0.01971   0.01321   0.0104   0.9204   0.7392
  -2.000  -0.2275   0.01971   0.01317   0.0065   0.9151   0.7604
  -1.800  -0.2067   0.01982   0.01335   0.0078   0.9005   0.7735
  -1.600  -0.1688   0.01972   0.01322   0.0055   0.8923   0.7926
  -1.400  -0.1188   0.01982   0.01332   0.0019   0.8871   0.8044
  -1.200  -0.1019   0.01982   0.01331   0.0035   0.8720   0.8216
  -1.000  -0.0579   0.01986   0.01334   0.0009   0.8632   0.8316
  -0.800  -0.0104   0.01982   0.01327  -0.0023   0.8563   0.8424
  -0.600   0.0068   0.01983   0.01325  -0.0007   0.8400   0.8573
  -0.400   0.0552   0.01981   0.01319  -0.0040   0.8297   0.8641
  -0.200   0.0904   0.01985   0.01319  -0.0054   0.8162   0.8743
   0.000   0.1147   0.01973   0.01302  -0.0049   0.8011   0.8874
   0.200   0.1599   0.01973   0.01296  -0.0080   0.7867   0.8931
   0.400   0.1995   0.01970   0.01286  -0.0103   0.7690   0.9012
   0.600   0.2188   0.01968   0.01276  -0.0092   0.7532   0.9154
   0.800   0.2647   0.01957   0.01256  -0.0128   0.7345   0.9206
   1.000   0.3023   0.01957   0.01249  -0.0153   0.7141   0.9290
   1.200   0.3253   0.01956   0.01232  -0.0149   0.6984   0.9418
   1.400   0.3664   0.01946   0.01218  -0.0183   0.6755   0.9486
   1.600   0.4023   0.01943   0.01205  -0.0207   0.6547   0.9576
   1.800   0.4310   0.01941   0.01187  -0.0216   0.6364   0.9682
   2.000   0.4718   0.01924   0.01164  -0.0253   0.6120   0.9754
   2.200   0.5066   0.01918   0.01148  -0.0278   0.5895   0.9845
   2.400   0.5432   0.01905   0.01120  -0.0307   0.5665   0.9920
   2.800   0.5971   0.01885   0.01082  -0.0332   0.5216   1.0000
   3.000   0.6118   0.01887   0.01071  -0.0321   0.5034   1.0000
   3.200   0.6263   0.01889   0.01060  -0.0310   0.4848   1.0000
   3.400   0.6407   0.01894   0.01061  -0.0300   0.4659   1.0000
   3.600   0.6554   0.01905   0.01052  -0.0288   0.4487   1.0000
   3.800   0.6694   0.01911   0.01059  -0.0276   0.4296   1.0000
   4.000   0.6838   0.01926   0.01063  -0.0265   0.4122   1.0000
   4.200   0.6976   0.01940   0.01069  -0.0252   0.3941   1.0000
   4.400   0.7114   0.01960   0.01084  -0.0239   0.3758   1.0000
   4.600   0.7249   0.01987   0.01091  -0.0225   0.3586   1.0000
   4.800   0.7375   0.02007   0.01112  -0.0209   0.3395   1.0000
   5.000   0.7498   0.02040   0.01134  -0.0193   0.3211   1.0000
   5.200   0.7613   0.02077   0.01152  -0.0176   0.3030   1.0000
   5.400   0.7725   0.02110   0.01185  -0.0158   0.2841   1.0000
   5.600   0.7834   0.02161   0.01218  -0.0140   0.2672   1.0000
   5.800   0.7939   0.02202   0.01254  -0.0120   0.2512   1.0000
   6.000   0.8050   0.02262   0.01304  -0.0102   0.2369   1.0000
   6.200   0.8160   0.02311   0.01345  -0.0083   0.2248   1.0000
   6.400   0.8281   0.02388   0.01408  -0.0067   0.2144   1.0000
   6.600   0.8400   0.02440   0.01464  -0.0049   0.2054   1.0000
   6.800   0.8522   0.02498   0.01512  -0.0033   0.1981   1.0000
   7.000   0.8673   0.02603   0.01600  -0.0022   0.1912   1.0000
   7.200   0.8795   0.02661   0.01671  -0.0005   0.1862   1.0000
   7.400   0.8925   0.02724   0.01741   0.0011   0.1810   1.0000
   7.600   0.9056   0.02785   0.01800   0.0025   0.1764   1.0000
   7.800   0.9197   0.02856   0.01863   0.0038   0.1721   1.0000
   8.000   0.9368   0.03005   0.02000   0.0043   0.1674   1.0000
   8.200   0.9481   0.03069   0.02079   0.0060   0.1650   1.0000
   8.400   0.9602   0.03151   0.02173   0.0076   0.1624   1.0000
   8.600   0.9719   0.03242   0.02276   0.0092   0.1599   1.0000
   8.800   0.9838   0.03338   0.02384   0.0107   0.1576   1.0000
   9.000   0.9957   0.03437   0.02491   0.0122   0.1555   1.0000
   9.200   1.0075   0.03539   0.02600   0.0136   0.1535   1.0000
   9.400   1.0194   0.03645   0.02713   0.0149   0.1517   1.0000
   9.600   1.0316   0.03760   0.02833   0.0161   0.1501   1.0000
   9.800   1.0438   0.03892   0.02969   0.0172   0.1486   1.0000
  10.000   1.0548   0.04056   0.03140   0.0183   0.1471   1.0000
  10.200   1.0621   0.04287   0.03384   0.0196   0.1457   1.0000
  10.400   1.0633   0.04524   0.03639   0.0216   0.1446   1.0000
  10.600   1.0637   0.04666   0.03802   0.0239   0.1439   1.0000
  10.800   1.0614   0.04828   0.03984   0.0264   0.1431   1.0000
  11.000   1.0556   0.05011   0.04188   0.0290   0.1423   1.0000
  11.200   1.0453   0.05214   0.04411   0.0318   0.1417   1.0000
  11.400   1.0289   0.05440   0.04656   0.0350   0.1413   1.0000
  11.600   1.0078   0.05719   0.04954   0.0377   0.1411   1.0000
  11.800   0.9800   0.06084   0.05339   0.0395   0.1412   1.0000
  12.000   0.9412   0.06601   0.05877   0.0398   0.1416   1.0000
  12.200   0.8788   0.07504   0.06804   0.0370   0.1425   1.0000
  12.400   0.7910   0.09169   0.08487   0.0289   0.1445   1.0000
  13.800   0.6208   0.16257   0.15601  -0.0072   0.1941   1.0000
  14.000   0.6535   0.16912   0.16261  -0.0052   0.1924   1.0000
  14.200   0.6407   0.17261   0.16606  -0.0080   0.1916   1.0000
  14.400   0.5887   0.17021   0.16361  -0.0143   0.1848   1.0000
  14.600   0.5916   0.17240   0.16580  -0.0155   0.1807   1.0000
  14.800   0.5981   0.17468   0.16808  -0.0163   0.1776   1.0000
  15.000   0.6068   0.17697   0.17039  -0.0169   0.1752   1.0000

.OPERva   c>  
 XFOIL   c>  