
 ===================================================
  XFOIL Version 6.99
  Copyright (C) 2000   Mark Drela, Harold Youngren

  This software comes with ABSOLUTELY NO WARRANTY,
    subject to the GNU General Public License.

  Caveat computor
 ===================================================

 File  xfoil.def  not found

   QUIT    Exit program

  .OPER    Direct operating point(s)
  .MDES    Complex mapping design routine
  .QDES    Surface speed design routine
  .GDES    Geometry design routine

   SAVE f  Write airfoil to labeled coordinate file
   PSAV f  Write airfoil to plain coordinate file
   ISAV f  Write airfoil to ISES coordinate file
   MSAV f  Write airfoil to MSES coordinate file
   REVE    Reverse written-airfoil node ordering

   LOAD f  Read buffer airfoil from coordinate file
   NACA i  Set NACA 4,5-digit airfoil and buffer airfoil
   INTE    Set buffer airfoil by interpolating two airfoils
   NORM    Buffer airfoil normalization toggle
   XYCM rr Change CM reference location, currently  0.25000 0.00000

   BEND    Display structural properties of current airfoil

   PCOP    Set current-airfoil panel nodes directly from buffer airfoil points
   PANE    Set current-airfoil panel nodes ( 160 ) based on curvature
  .PPAR    Show/change paneling

  .PLOP    Plotting options

   WDEF f  Write  current-settings file
   RDEF f  Reread current-settings file
   NAME s  Specify new airfoil name
   NINC    Increment name version number

   Z       Zoom    | (available in all menus)
   U       Unzoom  | 

 XFOIL   c>   Max thickness =     0.240072  at x =   0.300
 Max camber    =     0.079999  at x =   0.598

 Buffer airfoil set using 331 points

 Blunt trailing edge.  Gap =  0.00504

 Paneling parameters used...
   Number of panel nodes       160
   Panel bunching parameter    1.000
   TE/LE panel density ratio   0.150
   Refined-area/LE panel density ratio    0.200
   Top    side refined area x/c limits  1.000 1.000
   Bottom side refined area x/c limits  1.000 1.000

 XFOIL   c>  
    Present paneling parameters...
  N  i   Number of panel nodes       160
  P  r   Panel bunching parameter    1.000
  T  r   TE/LE panel density ratio   0.150
  R  r   Refined area/LE  panel density ratio   0.200
  XT rr  Top    side refined area x/c limits    1.000 1.000
  XB rr  Bottom side refined area x/c limits    1.000 1.000
  Z oom
  U nzoom

Change what ? (<cr> if nothing else)   c>  
Enter number of panel nodes   i>  
Change what ? (<cr> if nothing else)   c>  
 Blunt trailing edge.  Gap =  0.00504

 Maximum panel corner angle =  6.249   at  i,x,y  =  58   0.0054  -0.0240

    Present paneling parameters...
  N  i   Number of panel nodes       100
  P  r   Panel bunching parameter    1.000
  T  r   TE/LE panel density ratio   0.150
  R  r   Refined area/LE  panel density ratio   0.200
  XT rr  Top    side refined area x/c limits    1.000 1.000
  XB rr  Bottom side refined area x/c limits    1.000 1.000
  Z oom
  U nzoom

Change what ? (<cr> if nothing else)   c>  
 ***  Input not recognized  ***

    Present paneling parameters...
  N  i   Number of panel nodes       100
  P  r   Panel bunching parameter    1.000
  T  r   TE/LE panel density ratio   0.150
  R  r   Refined area/LE  panel density ratio   0.200
  XT rr  Top    side refined area x/c limits    1.000 1.000
  XB rr  Bottom side refined area x/c limits    1.000 1.000
  Z oom
  U nzoom

Change what ? (<cr> if nothing else)   c>  
 ***  Input not recognized  ***

    Present paneling parameters...
  N  i   Number of panel nodes       100
  P  r   Panel bunching parameter    1.000
  T  r   TE/LE panel density ratio   0.150
  R  r   Refined area/LE  panel density ratio   0.200
  XT rr  Top    side refined area x/c limits    1.000 1.000
  XB rr  Bottom side refined area x/c limits    1.000 1.000
  Z oom
  U nzoom

Change what ? (<cr> if nothing else)   c>  
 ***  Input not recognized  ***

    Present paneling parameters...
  N  i   Number of panel nodes       100
  P  r   Panel bunching parameter    1.000
  T  r   TE/LE panel density ratio   0.150
  R  r   Refined area/LE  panel density ratio   0.200
  XT rr  Top    side refined area x/c limits    1.000 1.000
  XB rr  Bottom side refined area x/c limits    1.000 1.000
  Z oom
  U nzoom

Change what ? (<cr> if nothing else)   c>  
 XFOIL   c>  
 XFOIL   c>  
 XFOIL   c>  
.OPERi   c>  
.OPERi   c>  
 Sonic Cp =   -199.79      Sonic Q/Qinf =    15.744


.OPERi   c>  
 M  =    0.0580
 Re =    250000

.OPERv   c>  
 Polar  1 newly created for accumulation
 Airfoil archived with polar: NACA 8624                                       

Enter  polar save filename  OR  <return> for no file   s>  
 Polar save file will NOT be written

Enter  polar dump filename  OR  <return> for no file   s>  
 Polar dump file will NOT be written

 Polar accumulation enabled

.OPERva   c>   Calculating unit vorticity distributions ...
 Calculating wake trajectory ...
 Calculating source influence matrix ...

 Solving BL system ...

 Initializing BL ...
    side            1  ...
 MRCHUE: Inverse mode at  39     Hk =   4.312
 MRCHUE: Inverse mode at  40     Hk =   5.266
 MRCHUE: Inverse mode at  41     Hk =   6.198
 MRCHUE: Inverse mode at  42     Hk =   7.116
 MRCHUE: Inverse mode at  43     Hk =   8.023
 MRCHUE: Inverse mode at  44     Hk =   8.921
 MRCHUE: Inverse mode at  45     Hk =   8.140
 MRCHUE: Inverse mode at  46     Hk =   4.690
 MRCHUE: Inverse mode at  47     Hk =   2.920
 MRCHUE: Inverse mode at  48     Hk =   2.500
 MRCHUE: Convergence failed at  49  side 1    Res =  0.6946E+01
 MRCHUE: Convergence failed at  50  side 1    Res =  0.6484E+03
    side            2  ...
 MRCHUE: Inverse mode at  25     Hk =   4.401
 MRCHUE: Inverse mode at  26     Hk =   5.477
 MRCHUE: Inverse mode at  27     Hk =   6.608
 MRCHUE: Inverse mode at  28     Hk =   7.815
 MRCHUE: Inverse mode at  29     Hk =   9.118
 MRCHUE: Inverse mode at  30     Hk =   5.417
 MRCHUE: Inverse mode at  31     Hk =   2.500
 MRCHUE: Inverse mode at  52     Hk =   2.500

 MRCHDU: Convergence failed at  49  side 1    Res =  0.1740E+03
 MRCHDU: Convergence failed at  50  side 1    Res =  0.2486E+02
 Side 1  free  transition at x/c =  0.8805   45
 Side 2  free  transition at x/c =  0.2092   30

   1   rms: 0.6594E+00   max: 0.3562E+01   T at   45  1   RLX: 0.330
       a = -5.000      CL =  0.5076
      Cm = -0.2965     CD =  0.01066   =>   CDf =  0.00702    CDp =  0.00364

 Side 1  free  transition at x/c =  0.8477   44
 Side 2  free  transition at x/c =  0.1985   30
 idif Ue xi dudx           2  0.25181884      1.22544765E-02   20.549129    
 Uenew xinew           3  0.13070582      6.36065006E-03

   2   rms: 0.1182E+01   max: 0.5372E+01   T at   44  1   RLX: 0.250
       a = -5.000      CL =  0.1714
      Cm = -0.2259     CD =  0.01874   =>   CDf =  0.00715    CDp =  0.01158

 MRCHDU: Convergence failed at  32  side 2    Res =  0.1027E+03
 MRCHDU: Convergence failed at  33  side 2    Res =  0.8845E+01
 MRCHDU: Convergence failed at  34  side 2    Res =  0.1004E+02
 MRCHDU: Convergence failed at  35  side 2    Res =  0.1679E+02
 MRCHDU: Convergence failed at  36  side 2    Res =  0.2912E+02
 MRCHDU: Convergence failed at  37  side 2    Res =  0.8613E+02
 MRCHDU: Convergence failed at  38  side 2    Res =  0.1684E+03
 MRCHDU: Convergence failed at  39  side 2    Res =  0.5527E+02
 MRCHDU: Convergence failed at  40  side 2    Res =  0.9027E+02
 MRCHDU: Convergence failed at  41  side 2    Res =  0.3988E+02
 MRCHDU: Convergence failed at  42  side 2    Res =  0.3657E+02
 MRCHDU: Convergence failed at  43  side 2    Res =  0.2546E+02
 MRCHDU: Convergence failed at  44  side 2    Res =  0.3405E+02
 MRCHDU: Convergence failed at  45  side 2    Res =  0.3242E+02
 MRCHDU: Convergence failed at  46  side 2    Res =  0.3555E+02
 MRCHDU: Convergence failed at  47  side 2    Res =  0.2880E+03
 MRCHDU: Convergence failed at  48  side 2    Res =  0.3455E+02
 MRCHDU: Convergence failed at  49  side 2    Res =  0.2783E+02
 MRCHDU: Convergence failed at  50  side 2    Res =  0.2607E+03
 MRCHDU: Convergence failed at  51  side 2    Res =  0.1650E+03
 MRCHDU: Convergence failed at  52  side 2    Res =  0.5649E+02
 MRCHDU: Convergence failed at  53  side 2    Res =  0.5137E+02
 MRCHDU: Convergence failed at  54  side 2    Res =  0.5227E+02
 Side 1  free  transition at x/c =  0.8185   41
 Side 2  free  transition at x/c =  0.1737   31

   3   rms: 0.6034E+00   max: 0.2728E+01   D at   58  2   RLX: 0.232
       a = -5.000      CL = -0.3308
      Cm =  0.0105     CD =  0.01916   =>   CDf =  0.00459    CDp =  0.01457

 MRCHDU: Convergence failed at  47  side 2    Res =  0.4544E+00
 MRCHDU: Convergence failed at  48  side 2    Res =  0.4663E+00
 MRCHDU: Convergence failed at  49  side 2    Res =  0.4817E+00
 MRCHDU: Convergence failed at  50  side 2    Res =  0.4993E+00
 MRCHDU: Convergence failed at  51  side 2    Res =  0.5187E+00
 MRCHDU: Convergence failed at  52  side 2    Res =  0.5395E+00
 MRCHDU: Convergence failed at  53  side 2    Res =  0.5540E+00
 Side 1  free  transition at x/c =  0.8143   42
 Side 2  free  transition at x/c =  0.1727   29
 idif Ue xi dudx           1  0.16593881      8.45789909E-03   19.619389    
 Uenew xinew           2  4.46713343E-02  2.27689743E-03

   4   rms: 0.3285E+00   max: 0.1621E+01   T at   42  1   RLX: 0.464
       a = -5.000      CL = -0.0493
      Cm = -0.1323     CD =  0.05192   =>   CDf =  0.00470    CDp =  0.04722

 Side 1  free  transition at x/c =  0.7980   40
 Side 2  free  transition at x/c =  0.1737   31

   5   rms: 0.5099E+00   max: -.3661E+01   T at   40  1   RLX: 0.137
       a = -5.000      CL =  0.0956
      Cm = -0.1751     CD =  0.05462   =>   CDf =  0.00455    CDp =  0.05008

 Side 1  free  transition at x/c =  0.8094   41
 Side 2  free  transition at x/c =  0.1759   31

   6   rms: 0.7637E+00   max: -.2408E+01   D at   34  2   RLX: 0.208
       a = -5.000      CL = -0.0470
      Cm = -0.1666     CD =  0.04230   =>   CDf =  0.00464    CDp =  0.03766

 Side 1  free  transition at x/c =  0.8012   40
 Side 2  free  transition at x/c =  0.1814   31

   7   rms: 0.1043E+02   max: -.4472E+02   T at   40  1   RLX: 0.011
       a = -5.000      CL =  0.0258
      Cm = -0.2031     CD =  0.03246   =>   CDf =  0.00461    CDp =  0.02785

 Side 1  free  transition at x/c =  0.8155   41
 Side 2  free  transition at x/c =  0.1959   31

   8   rms: 0.3765E+01   max: 0.1229E+02   D at   38  2   RLX: 0.090
       a = -5.000      CL =  0.3271
      Cm = -0.2138     CD =  0.04236   =>   CDf =  0.00502    CDp =  0.03735

 Side 1  free  transition at x/c =  0.8340   43
 Side 2  free  transition at x/c =  0.1946   30

   9   rms: 0.2898E+00   max: 0.1997E+01   T at   30  2   RLX: 0.323
       a = -5.000      CL =  0.3842
      Cm = -0.2247     CD =  0.04606   =>   CDf =  0.00501    CDp =  0.04104

 Side 1  free  transition at x/c =  0.8312   43
 Side 2  free  transition at x/c =  0.1828   30

  10   rms: 0.1079E+01   max: -.3888E+01   D at   33  2   RLX: 0.129
       a = -5.000      CL =  0.2629
      Cm = -0.2173     CD =  0.04202   =>   CDf =  0.00490    CDp =  0.03712
 VISCAL:  Convergence failed

.OPERva   c>  
.OPERva   c>  
.OPERva   c>   Calculating wake trajectory ...
 Calculating source influence matrix ...

 Solving BL system ...

 Side 1  free  transition at x/c =  0.8263   42
 Side 2  free  transition at x/c =  0.1936   30

   1   rms: 0.7574E+00   max: 0.3572E+01   D at   35  2   RLX: 0.420
       a = -4.800      CL =  0.5530
      Cm = -0.2284     CD =  0.05358   =>   CDf =  0.00499    CDp =  0.04859

 Side 1  free  transition at x/c =  0.8393   44
 Side 2  free  transition at x/c =  0.1791   29

   2   rms: 0.6700E+00   max: -.2488E+01   D at   34  2   RLX: 0.201
       a = -4.800      CL =  0.4868
      Cm = -0.2427     CD =  0.04476   =>   CDf =  0.00498    CDp =  0.03977

 Side 1  free  transition at x/c =  0.8314   44
 Side 2  free  transition at x/c =  0.1849   29
 idif Ue xi dudx           1  0.19709308      9.78231430E-03   20.147900    
 Uenew xinew           2  7.83448592E-02  3.88848782E-03

   3   rms: 0.1625E+01   max: 0.8184E+01   T at   44  1   RLX: 0.136
       a = -4.800      CL =  0.2569
      Cm = -0.2131     CD =  0.04888   =>   CDf =  0.00506    CDp =  0.04382

 Side 1  free  transition at x/c =  0.8064   42
 Side 2  free  transition at x/c =  0.1801   30
 idif Ue xi dudx           1  0.13900310      6.95931911E-03   19.973663    
 Uenew xinew           2  1.55458506E-02  7.78317451E-04

   4   rms: 0.6270E+00   max: 0.2383E+01   T at   42  1   RLX: 0.228
       a = -4.800      CL =  0.1419
      Cm = -0.2071     CD =  0.03857   =>   CDf =  0.00492    CDp =  0.03365

 Side 1  free  transition at x/c =  0.7995   40
 Side 2  free  transition at x/c =  0.1781   31

   5   rms: 0.4707E+00   max: -.1859E+01   D at   49  2   RLX: 0.269
       a = -4.800      CL =  0.2056
      Cm = -0.2264     CD =  0.03054   =>   CDf =  0.00510    CDp =  0.02544

 Side 1  free  transition at x/c =  0.8035   42
 Side 2  free  transition at x/c =  0.1868   30

   6   rms: 0.2364E+00   max: -.9471E+00   D at   53  2   RLX: 0.528
       a = -4.800      CL =  0.1954
      Cm = -0.2151     CD =  0.02645   =>   CDf =  0.00619    CDp =  0.02026

 Side 1  free  transition at x/c =  0.8015   41
 Side 2  free  transition at x/c =  0.1881   30

   7   rms: 0.1893E+00   max: -.1099E+01   T at   41  1   RLX: 0.455
       a = -4.800      CL =  0.3055
      Cm = -0.2300     CD =  0.02582   =>   CDf =  0.00671    CDp =  0.01911

 Side 1  free  transition at x/c =  0.8179   42
 Side 2  free  transition at x/c =  0.1943   30

   8   rms: 0.2949E+00   max: 0.1573E+01   D at   49  1   RLX: 0.954
       a = -4.800      CL =  0.1996
      Cm = -0.2037     CD =  0.02689   =>   CDf =  0.00699    CDp =  0.01990

 Side 1  free  transition at x/c =  0.8017   41
 Side 2  free  transition at x/c =  0.1839   30

   9   rms: 0.1173E+00   max: -.7642E+00   T at   41  1   RLX: 0.654
       a = -4.800      CL =  0.2943
      Cm = -0.2220     CD =  0.02732   =>   CDf =  0.00706    CDp =  0.02026

 Side 1  free  transition at x/c =  0.8179   42
 Side 2  free  transition at x/c =  0.1897   30

  10   rms: 0.3183E+00   max: 0.1705E+01   D at   43  1   RLX: 0.880
       a = -4.800      CL =  0.1684
      Cm = -0.1971     CD =  0.02745   =>   CDf =  0.00715    CDp =  0.02030
 VISCAL:  Convergence failed

.OPERva   c>  
.OPERva   c>  
.OPERva   c>   Calculating wake trajectory ...
 Calculating source influence matrix ...

 Solving BL system ...

 MRCHDU: Convergence failed at  43  side 1    Res =  0.5855E+01
 MRCHDU: Convergence failed at  44  side 1    Res =  0.2318E+02
 MRCHDU: Convergence failed at  45  side 1    Res =  0.1223E+02
 MRCHDU: Convergence failed at  46  side 1    Res =  0.3901E+01
 MRCHDU: Convergence failed at  47  side 1    Res =  0.1084E+02
 MRCHDU: Convergence failed at  48  side 1    Res =  0.4203E+03
 MRCHDU: Convergence failed at  49  side 1    Res =  0.7076E+01
 Side 1  free  transition at x/c =  0.8017   41
 Side 2  free  transition at x/c =  0.1807   30

   1   rms: 0.3090E+00   max: 0.2319E+01   D at   49  1   RLX: 0.425
       a = -4.600      CL =  0.1863
      Cm = -0.2204     CD =  0.01975   =>   CDf =  0.00707    CDp =  0.01269

 Side 1  free  transition at x/c =  0.7857   41
 Side 2  free  transition at x/c =  0.1800   30

   2   rms: 0.8312E-01   max: 0.7031E+00   T at   41  1
       a = -4.600      CL =  0.0928
      Cm = -0.1843     CD =  0.03405   =>   CDf =  0.00705    CDp =  0.02701

 Side 1  free  transition at x/c =  0.7694   40
 Side 2  free  transition at x/c =  0.1781   30

   3   rms: 0.1141E+00   max: -.9616E+00   T at   40  1   RLX: 0.520
       a = -4.600      CL =  0.1511
      Cm = -0.1947     CD =  0.03374   =>   CDf =  0.00707    CDp =  0.02667

 Side 1  free  transition at x/c =  0.7822   41
 Side 2  free  transition at x/c =  0.1827   30

   4   rms: 0.1464E+00   max: 0.9089E+00   D at   41  1
       a = -4.600      CL =  0.0892
      Cm = -0.1827     CD =  0.03541   =>   CDf =  0.00703    CDp =  0.02838

 Side 1  free  transition at x/c =  0.7705   40
 Side 2  free  transition at x/c =  0.1776   30

   5   rms: 0.6009E-01   max: -.4909E+00   T at   40  1
       a = -4.600      CL =  0.1539
      Cm = -0.1929     CD =  0.03283   =>   CDf =  0.00707    CDp =  0.02576

 Side 1  free  transition at x/c =  0.7839   41
 Side 2  free  transition at x/c =  0.1833   30
 idif Ue xi dudx           1  0.12508319      6.38806820E-03   19.580753    
 Uenew xinew           2  4.05451888E-03  2.07066536E-04

   6   rms: 0.1902E+00   max: 0.1083E+01   D at   41  1
       a = -4.600      CL =  0.0789
      Cm = -0.1811     CD =  0.03625   =>   CDf =  0.00709    CDp =  0.02916

 Side 1  free  transition at x/c =  0.7697   39
 Side 2  free  transition at x/c =  0.1767   31

   7   rms: 0.9095E-01   max: -.6442E+00   T at   39  1   RLX: 0.776
       a = -4.600      CL =  0.1486
      Cm = -0.1925     CD =  0.03284   =>   CDf =  0.00702    CDp =  0.02582

 Side 1  free  transition at x/c =  0.7831   41
 Side 2  free  transition at x/c =  0.1833   30
 idif Ue xi dudx           1  0.12367811      6.30795956E-03   19.606674    
 Uenew xinew           2  2.48922198E-03  1.26957893E-04

   8   rms: 0.1752E+00   max: 0.9799E+00   D at   42  1
       a = -4.600      CL =  0.0816
      Cm = -0.1815     CD =  0.03612   =>   CDf =  0.00709    CDp =  0.02903

 Side 1  free  transition at x/c =  0.7698   39
 Side 2  free  transition at x/c =  0.1770   31

   9   rms: 0.1076E+00   max: -.1009E+01   D at    2  2   RLX: 0.495
       a = -4.600      CL =  0.1269
      Cm = -0.1896     CD =  0.03350   =>   CDf =  0.00701    CDp =  0.02648

 Side 1  free  transition at x/c =  0.7768   41
 Side 2  free  transition at x/c =  0.1809   30

  10   rms: 0.7386E-01   max: 0.4090E+00   D at   42  1
       a = -4.600      CL =  0.1097
      Cm = -0.1859     CD =  0.03434   =>   CDf =  0.00704    CDp =  0.02730
 VISCAL:  Convergence failed

.OPERva   c>  
.OPERva   c>  
.OPERva   c>   Calculating wake trajectory ...
 Calculating source influence matrix ...

 Solving BL system ...

 Side 1  free  transition at x/c =  0.7727   40
 Side 2  free  transition at x/c =  0.1792   30

   1   rms: 0.6048E-01   max: -.2792E+00   T at   40  1   RLX: 0.880
       a = -4.400      CL =  0.1690
      Cm = -0.1925     CD =  0.03272   =>   CDf =  0.00705    CDp =  0.02567

 Side 1  free  transition at x/c =  0.7789   41
 Side 2  free  transition at x/c =  0.1861   30

   2   rms: 0.1172E+00   max: 0.6616E+00   D at   41  1
       a = -4.400      CL =  0.1312
      Cm = -0.1859     CD =  0.03443   =>   CDf =  0.00702    CDp =  0.02741

 Side 1  free  transition at x/c =  0.7711   40
 Side 2  free  transition at x/c =  0.1832   30

   3   rms: 0.6194E-01   max: -.5512E+00   T at   40  1   RLX: 0.907
       a = -4.400      CL =  0.1914
      Cm = -0.1955     CD =  0.03205   =>   CDf =  0.00702    CDp =  0.02503

 Side 1  free  transition at x/c =  0.7851   41
 Side 2  free  transition at x/c =  0.1876   30

   4   rms: 0.2085E+00   max: 0.1139E+01   D at   41  1
       a = -4.400      CL =  0.1048
      Cm = -0.1814     CD =  0.03565   =>   CDf =  0.00705    CDp =  0.02861

 Side 1  free  transition at x/c =  0.7699   40
 Side 2  free  transition at x/c =  0.1811   30

   5   rms: 0.8160E-01   max: -.6204E+00   T at   40  1   RLX: 0.806
       a = -4.400      CL =  0.1824
      Cm = -0.1942     CD =  0.03239   =>   CDf =  0.00704    CDp =  0.02534

 Side 1  free  transition at x/c =  0.7838   41
 Side 2  free  transition at x/c =  0.1866   30

   6   rms: 0.1929E+00   max: 0.1082E+01   D at   43  1
       a = -4.400      CL =  0.1024
      Cm = -0.1811     CD =  0.03588   =>   CDf =  0.00704    CDp =  0.02884

 Side 1  free  transition at x/c =  0.7691   40
 Side 2  free  transition at x/c =  0.1809   30

   7   rms: 0.1171E+00   max: -.9656E+00   T at   40  1   RLX: 0.518
       a = -4.400      CL =  0.1736
      Cm = -0.1933     CD =  0.03235   =>   CDf =  0.00704    CDp =  0.02531

 Side 1  free  transition at x/c =  0.7826   41
 Side 2  free  transition at x/c =  0.1857   30

   8   rms: 0.1732E+00   max: 0.1060E+01   D at   43  1
       a = -4.400      CL =  0.1080
      Cm = -0.1820     CD =  0.03561   =>   CDf =  0.00705    CDp =  0.02857

 Side 1  free  transition at x/c =  0.7696   40
 Side 2  free  transition at x/c =  0.1814   30

   9   rms: 0.9788E-01   max: -.8081E+00   T at   40  1   RLX: 0.619
       a = -4.400      CL =  0.1786
      Cm = -0.1939     CD =  0.03220   =>   CDf =  0.00704    CDp =  0.02516

 Side 1  free  transition at x/c =  0.7833   41
 Side 2  free  transition at x/c =  0.1862   30

  10   rms: 0.1852E+00   max: 0.1098E+01   D at   43  1
       a = -4.400      CL =  0.1045
      Cm = -0.1814     CD =  0.03576   =>   CDf =  0.00705    CDp =  0.02871
 VISCAL:  Convergence failed

.OPERva   c>  
.OPERva   c>  
.OPERva   c>   Calculating wake trajectory ...
 Calculating source influence matrix ...

 Solving BL system ...

 Side 1  free  transition at x/c =  0.7693   40
 Side 2  free  transition at x/c =  0.1811   30

   1   rms: 0.1508E+00   max: -.1039E+01   T at   40  1   RLX: 0.481
       a = -4.200      CL =  0.1907
      Cm = -0.1944     CD =  0.03198   =>   CDf =  0.00704    CDp =  0.02494

 Side 1  free  transition at x/c =  0.7832   41
 Side 2  free  transition at x/c =  0.1879   30

   2   rms: 0.1801E+00   max: 0.1140E+01   D at   43  1
       a = -4.200      CL =  0.1370
      Cm = -0.1831     CD =  0.03523   =>   CDf =  0.00705    CDp =  0.02818

 Side 1  free  transition at x/c =  0.7689   40
 Side 2  free  transition at x/c =  0.1864   30

   3   rms: 0.1387E+00   max: -.1170E+01   T at   40  1   RLX: 0.427
       a = -4.200      CL =  0.2069
      Cm = -0.1955     CD =  0.03140   =>   CDf =  0.00704    CDp =  0.02436

 Side 1  free  transition at x/c =  0.7829   41
 Side 2  free  transition at x/c =  0.1915   30

   4   rms: 0.1838E+00   max: 0.1179E+01   D at   43  1
       a = -4.200      CL =  0.1371
      Cm = -0.1830     CD =  0.03510   =>   CDf =  0.00709    CDp =  0.02801

 Side 1  free  transition at x/c =  0.7694   40
 Side 2  free  transition at x/c =  0.1864   30

   5   rms: 0.1246E+00   max: -.1035E+01   T at   40  1   RLX: 0.483
       a = -4.200      CL =  0.2087
      Cm = -0.1955     CD =  0.03142   =>   CDf =  0.00704    CDp =  0.02438

 Side 1  free  transition at x/c =  0.7834   41
 Side 2  free  transition at x/c =  0.1917   30

   6   rms: 0.1921E+00   max: 0.1206E+01   D at   43  1
       a = -4.200      CL =  0.1346
      Cm = -0.1826     CD =  0.03523   =>   CDf =  0.00710    CDp =  0.02813

 Side 1  free  transition at x/c =  0.7692   40
 Side 2  free  transition at x/c =  0.1862   30

   7   rms: 0.1316E+00   max: -.1090E+01   T at   40  1   RLX: 0.459
       a = -4.200      CL =  0.2066
      Cm = -0.1953     CD =  0.03148   =>   CDf =  0.00704    CDp =  0.02444

 Side 1  free  transition at x/c =  0.7832   41
 Side 2  free  transition at x/c =  0.1915   30

   8   rms: 0.1884E+00   max: 0.1201E+01   D at   43  1
       a = -4.200      CL =  0.1355
      Cm = -0.1827     CD =  0.03519   =>   CDf =  0.00710    CDp =  0.02810

 Side 1  free  transition at x/c =  0.7693   40
 Side 2  free  transition at x/c =  0.1863   30

   9   rms: 0.1281E+00   max: -.1062E+01   T at   40  1   RLX: 0.471
       a = -4.200      CL =  0.2075
      Cm = -0.1954     CD =  0.03145   =>   CDf =  0.00704    CDp =  0.02441

 Side 1  free  transition at x/c =  0.7833   41
 Side 2  free  transition at x/c =  0.1916   30

  10   rms: 0.1904E+00   max: 0.1204E+01   D at   43  1
       a = -4.200      CL =  0.1350
      Cm = -0.1827     CD =  0.03521   =>   CDf =  0.00710    CDp =  0.02812
 VISCAL:  Convergence failed

.OPERva   c>  
.OPERva   c>  
.OPERva   c>   Calculating wake trajectory ...
 Calculating source influence matrix ...

 Solving BL system ...

 Side 1  free  transition at x/c =  0.7692   40
 Side 2  free  transition at x/c =  0.1862   30

   1   rms: 0.1740E+00   max: -.1242E+01   T at   40  1   RLX: 0.403
       a = -4.000      CL =  0.2197
      Cm = -0.1960     CD =  0.03118   =>   CDf =  0.00704    CDp =  0.02414

 Side 1  free  transition at x/c =  0.7835   41
 Side 2  free  transition at x/c =  0.1935   30

   2   rms: 0.1808E+00   max: 0.1183E+01   D at   43  1
       a = -4.000      CL =  0.1756
      Cm = -0.1857     CD =  0.03433   =>   CDf =  0.00713    CDp =  0.02720

 Side 1  free  transition at x/c =  0.7697   40
 Side 2  free  transition at x/c =  0.1921   30

   3   rms: 0.1236E+00   max: -.1016E+01   T at   40  1   RLX: 0.492
       a = -4.000      CL =  0.2480
      Cm = -0.1986     CD =  0.03071   =>   CDf =  0.00708    CDp =  0.02364

 Side 1  free  transition at x/c =  0.7843   41
 Side 2  free  transition at x/c =  0.1966   30

   4   rms: 0.2008E+00   max: 0.1193E+01   D at   43  1
       a = -4.000      CL =  0.1708
      Cm = -0.1848     CD =  0.03430   =>   CDf =  0.00719    CDp =  0.02711

 Side 1  free  transition at x/c =  0.7698   40
 Side 2  free  transition at x/c =  0.1922   30

   5   rms: 0.1113E+00   max: -.8756E+00   T at   40  1   RLX: 0.571
       a = -4.000      CL =  0.2476
      Cm = -0.1984     CD =  0.03085   =>   CDf =  0.00708    CDp =  0.02377

 Side 1  free  transition at x/c =  0.7844   41
 Side 2  free  transition at x/c =  0.1968   30

   6   rms: 0.2020E+00   max: 0.1167E+01   D at   43  1
       a = -4.000      CL =  0.1694
      Cm = -0.1846     CD =  0.03435   =>   CDf =  0.00719    CDp =  0.02715

 Side 1  free  transition at x/c =  0.7697   40
 Side 2  free  transition at x/c =  0.1921   30

   7   rms: 0.1090E+00   max: -.8498E+00   T at   40  1   RLX: 0.588
       a = -4.000      CL =  0.2474
      Cm = -0.1983     CD =  0.03086   =>   CDf =  0.00708    CDp =  0.02378

 Side 1  free  transition at x/c =  0.7844   41
 Side 2  free  transition at x/c =  0.1968   30

   8   rms: 0.2007E+00   max: 0.1150E+01   D at   43  1
       a = -4.000      CL =  0.1695
      Cm = -0.1846     CD =  0.03432   =>   CDf =  0.00719    CDp =  0.02713

 Side 1  free  transition at x/c =  0.7697   40
 Side 2  free  transition at x/c =  0.1921   30

   9   rms: 0.1082E+00   max: -.8422E+00   T at   40  1   RLX: 0.594
       a = -4.000      CL =  0.2476
      Cm = -0.1983     CD =  0.03085   =>   CDf =  0.00708    CDp =  0.02378

 Side 1  free  transition at x/c =  0.7844   41
 Side 2  free  transition at x/c =  0.1968   30

  10   rms: 0.2009E+00   max: 0.1147E+01   D at   43  1
       a = -4.000      CL =  0.1693
      Cm = -0.1846     CD =  0.03432   =>   CDf =  0.00720    CDp =  0.02713
 VISCAL:  Convergence failed

.OPERva   c>  
.OPERva   c>  
.OPERva   c>   Calculating wake trajectory ...
 Calculating source influence matrix ...

 Solving BL system ...

 Side 1  free  transition at x/c =  0.7697   40
 Side 2  free  transition at x/c =  0.1921   30

   1   rms: 0.1456E+00   max: -.9336E+00   T at   40  1   RLX: 0.536
       a = -3.800      CL =  0.2653
      Cm = -0.1994     CD =  0.03050   =>   CDf =  0.00698    CDp =  0.02353

 Side 1  free  transition at x/c =  0.7847   42
 Side 2  free  transition at x/c =  0.2004   30
 idif Ue xi dudx           1  0.14473408      6.97827339E-03   20.740673    
 Uenew xinew           2  2.24921592E-02  1.08444691E-03

   2   rms: 0.2068E+00   max: 0.1178E+01   D at   45  1
       a = -3.800      CL =  0.2001
      Cm = -0.1858     CD =  0.03390   =>   CDf =  0.00727    CDp =  0.02663

 Side 1  free  transition at x/c =  0.7692   40
 Side 2  free  transition at x/c =  0.1961   30

   3   rms: 0.1408E+00   max: -.1075E+01   T at   40  1   RLX: 0.465
       a = -3.800      CL =  0.2795
      Cm = -0.2004     CD =  0.03032   =>   CDf =  0.00704    CDp =  0.02328

 Side 1  free  transition at x/c =  0.7844   42
 Side 2  free  transition at x/c =  0.2022   30
 idif Ue xi dudx           1  0.14501235      6.99162483E-03   20.740866    
 Uenew xinew           2  2.27692872E-02  1.09779835E-03

   4   rms: 0.2059E+00   max: 0.1211E+01   D at   45  1
       a = -3.800      CL =  0.1999
      Cm = -0.1857     CD =  0.03372   =>   CDf =  0.00727    CDp =  0.02645

 Side 1  free  transition at x/c =  0.7694   40
 Side 2  free  transition at x/c =  0.1966   30

   5   rms: 0.1371E+00   max: -.1040E+01   T at   40  1   RLX: 0.481
       a = -3.800      CL =  0.2799
      Cm = -0.2004     CD =  0.03033   =>   CDf =  0.00705    CDp =  0.02328

 Side 1  free  transition at x/c =  0.7846   42
 Side 2  free  transition at x/c =  0.2027   30
 idif Ue xi dudx           1  0.14538196      7.01034069E-03   20.738216    
 Uenew xinew           2  2.31545139E-02  1.11651421E-03

   6   rms: 0.2094E+00   max: 0.1228E+01   D at   45  1
       a = -3.800      CL =  0.1992
      Cm = -0.1856     CD =  0.03373   =>   CDf =  0.00727    CDp =  0.02647

 Side 1  free  transition at x/c =  0.7694   40
 Side 2  free  transition at x/c =  0.1967   30

   7   rms: 0.1371E+00   max: -.1037E+01   T at   40  1   RLX: 0.482
       a = -3.800      CL =  0.2795
      Cm = -0.2003     CD =  0.03036   =>   CDf =  0.00705    CDp =  0.02332

 Side 1  free  transition at x/c =  0.7846   42
 Side 2  free  transition at x/c =  0.2028   30
 idif Ue xi dudx           1  0.14532942      7.00759888E-03   20.738832    
 Uenew xinew           2  2.30983384E-02  1.11377239E-03

   8   rms: 0.2090E+00   max: 0.1228E+01   D at   45  1
       a = -3.800      CL =  0.1993
      Cm = -0.1856     CD =  0.03373   =>   CDf =  0.00727    CDp =  0.02646

 Side 1  free  transition at x/c =  0.7694   40
 Side 2  free  transition at x/c =  0.1967   30

   9   rms: 0.1369E+00   max: -.1035E+01   T at   40  1   RLX: 0.483
       a = -3.800      CL =  0.2796
      Cm = -0.2003     CD =  0.03036   =>   CDf =  0.00705    CDp =  0.02331

 Side 1  free  transition at x/c =  0.7846   42
 Side 2  free  transition at x/c =  0.2028   30
 idif Ue xi dudx           1  0.14535385      7.00891018E-03   20.738440    
 Uenew xinew           2  2.31250953E-02  1.11508369E-03

  10   rms: 0.2092E+00   max: 0.1229E+01   D at   45  1
       a = -3.800      CL =  0.1992
      Cm = -0.1856     CD =  0.03373   =>   CDf =  0.00726    CDp =  0.02647
 VISCAL:  Convergence failed

.OPERva   c>  
.OPERva   c>  
.OPERva   c>   Calculating wake trajectory ...
 Calculating source influence matrix ...

 Solving BL system ...

 Side 1  free  transition at x/c =  0.7694   40
 Side 2  free  transition at x/c =  0.1967   30

   1   rms: 0.1783E+00   max: -.1147E+01   T at   40  1   RLX: 0.436
       a = -3.600      CL =  0.2939
      Cm = -0.2012     CD =  0.03012   =>   CDf =  0.00705    CDp =  0.02307

 Side 1  free  transition at x/c =  0.7848   42
 Side 2  free  transition at x/c =  0.2058   30

   2   rms: 0.2058E+00   max: 0.1218E+01   D at   45  1
       a = -3.600      CL =  0.2333
      Cm = -0.1878     CD =  0.03298   =>   CDf =  0.00717    CDp =  0.02581

 Side 1  free  transition at x/c =  0.7691   41
 Side 2  free  transition at x/c =  0.2034   30

   3   rms: 0.1679E+00   max: -.1262E+01   T at   41  1   RLX: 0.396
       a = -3.600      CL =  0.3148
      Cm = -0.2035     CD =  0.02908   =>   CDf =  0.00711    CDp =  0.02197

 Side 1  free  transition at x/c =  0.7848   42
 Side 2  free  transition at x/c =  0.2104   30

   4   rms: 0.2090E+00   max: 0.1232E+01   D at   45  1
       a = -3.600      CL =  0.2312
      Cm = -0.1874     CD =  0.03297   =>   CDf =  0.00710    CDp =  0.02587

 Side 1  free  transition at x/c =  0.7692   41
 Side 2  free  transition at x/c =  0.2030   30

   5   rms: 0.1709E+00   max: -.1273E+01   T at   41  1   RLX: 0.393
       a = -3.600      CL =  0.3141
      Cm = -0.2034     CD =  0.02915   =>   CDf =  0.00711    CDp =  0.02204

 Side 1  free  transition at x/c =  0.7849   42
 Side 2  free  transition at x/c =  0.2101   30

   6   rms: 0.2092E+00   max: 0.1241E+01   D at   45  1
       a = -3.600      CL =  0.2314
      Cm = -0.1874     CD =  0.03296   =>   CDf =  0.00710    CDp =  0.02586

 Side 1  free  transition at x/c =  0.7693   41
 Side 2  free  transition at x/c =  0.2031   30

   7   rms: 0.1665E+00   max: -.1239E+01   T at   41  1   RLX: 0.403
       a = -3.600      CL =  0.3143
      Cm = -0.2034     CD =  0.02916   =>   CDf =  0.00711    CDp =  0.02206

 Side 1  free  transition at x/c =  0.7850   42
 Side 2  free  transition at x/c =  0.2102   30

   8   rms: 0.2096E+00   max: 0.1239E+01   D at   45  1
       a = -3.600      CL =  0.2316
      Cm = -0.1874     CD =  0.03294   =>   CDf =  0.00710    CDp =  0.02584

 Side 1  free  transition at x/c =  0.7693   41
 Side 2  free  transition at x/c =  0.2031   30

   9   rms: 0.1623E+00   max: -.1206E+01   T at   41  1   RLX: 0.415
       a = -3.600      CL =  0.3148
      Cm = -0.2034     CD =  0.02918   =>   CDf =  0.00711    CDp =  0.02207

 Side 1  free  transition at x/c =  0.7851   42
 Side 2  free  transition at x/c =  0.2102   30

  10   rms: 0.2093E+00   max: 0.1231E+01   D at   45  1
       a = -3.600      CL =  0.2325
      Cm = -0.1876     CD =  0.03288   =>   CDf =  0.00710    CDp =  0.02578
 VISCAL:  Convergence failed

.OPERva   c>  
.OPERva   c>  
.OPERva   c>   Calculating wake trajectory ...
 Calculating source influence matrix ...

 Solving BL system ...

 Side 1  free  transition at x/c =  0.7694   41
 Side 2  free  transition at x/c =  0.2031   30

   1   rms: 0.1960E+00   max: -.1251E+01   T at   41  1   RLX: 0.400
       a = -3.400      CL =  0.3293
      Cm = -0.2045     CD =  0.02889   =>   CDf =  0.00711    CDp =  0.02178

 Side 1  free  transition at x/c =  0.7853   42
 Side 2  free  transition at x/c =  0.2126   30

   2   rms: 0.2029E+00   max: 0.1189E+01   D at   45  1
       a = -3.400      CL =  0.2685
      Cm = -0.1899     CD =  0.03218   =>   CDf =  0.00710    CDp =  0.02508

 Side 1  free  transition at x/c =  0.7694   41
 Side 2  free  transition at x/c =  0.2096   30

   3   rms: 0.1603E+00   max: -.1174E+01   T at   41  1   RLX: 0.426
       a = -3.400      CL =  0.3538
      Cm = -0.2065     CD =  0.02849   =>   CDf =  0.00706    CDp =  0.02142

 Side 1  free  transition at x/c =  0.7857   42
 Side 2  free  transition at x/c =  0.2159   30

   4   rms: 0.2163E+00   max: 0.1188E+01   D at   45  1
       a = -3.400      CL =  0.2648
      Cm = -0.1891     CD =  0.03213   =>   CDf =  0.00712    CDp =  0.02501

 Side 1  free  transition at x/c =  0.7695   41
 Side 2  free  transition at x/c =  0.2093   30

   5   rms: 0.1508E+00   max: -.1073E+01   T at   41  1   RLX: 0.466
       a = -3.400      CL =  0.3534
      Cm = -0.2063     CD =  0.02861   =>   CDf =  0.00707    CDp =  0.02154

 Side 1  free  transition at x/c =  0.7858   42
 Side 2  free  transition at x/c =  0.2159   30

   6   rms: 0.2163E+00   max: 0.1210E+01   D at   46  1
       a = -3.400      CL =  0.2652
      Cm = -0.1892     CD =  0.03212   =>   CDf =  0.00712    CDp =  0.02499

 Side 1  free  transition at x/c =  0.7696   41
 Side 2  free  transition at x/c =  0.2094   30

   7   rms: 0.1438E+00   max: -.1015E+01   T at   41  1   RLX: 0.493
       a = -3.400      CL =  0.3546
      Cm = -0.2063     CD =  0.02860   =>   CDf =  0.00707    CDp =  0.02153

 Side 1  free  transition at x/c =  0.7859   42
 Side 2  free  transition at x/c =  0.2160   30

   8   rms: 0.2183E+00   max: 0.1240E+01   D at   46  1
       a = -3.400      CL =  0.2647
      Cm = -0.1890     CD =  0.03210   =>   CDf =  0.00712    CDp =  0.02498

 Side 1  free  transition at x/c =  0.7696   41
 Side 2  free  transition at x/c =  0.2093   30

   9   rms: 0.1415E+00   max: -.9931E+00   T at   41  1   RLX: 0.503
       a = -3.400      CL =  0.3548
      Cm = -0.2063     CD =  0.02862   =>   CDf =  0.00707    CDp =  0.02155

 Side 1  free  transition at x/c =  0.7860   42
 Side 2  free  transition at x/c =  0.2161   30

  10   rms: 0.2186E+00   max: 0.1251E+01   D at   46  1
       a = -3.400      CL =  0.2646
      Cm = -0.1890     CD =  0.03210   =>   CDf =  0.00712    CDp =  0.02498
 VISCAL:  Convergence failed

.OPERva   c>  
.OPERva   c>  
.OPERva   c>   Calculating wake trajectory ...
 Calculating source influence matrix ...

 Solving BL system ...

 Side 1  free  transition at x/c =  0.7696   41
 Side 2  free  transition at x/c =  0.2093   30

   1   rms: 0.1774E+00   max: -.1060E+01   T at   41  1   RLX: 0.472
       a = -3.200      CL =  0.3706
      Cm = -0.2074     CD =  0.02835   =>   CDf =  0.00707    CDp =  0.02128

 Side 1  free  transition at x/c =  0.7861   42
 Side 2  free  transition at x/c =  0.2186   30

   2   rms: 0.2142E+00   max: 0.1243E+01   D at   46  1
       a = -3.200      CL =  0.2978
      Cm = -0.1909     CD =  0.03157   =>   CDf =  0.00715    CDp =  0.02442

 Side 1  free  transition at x/c =  0.7692   41
 Side 2  free  transition at x/c =  0.2157   30

   3   rms: 0.1643E+00   max: -.1146E+01   T at   41  1   RLX: 0.436
       a = -3.200      CL =  0.3896
      Cm = -0.2092     CD =  0.02794   =>   CDf =  0.00708    CDp =  0.02086

 Side 1  free  transition at x/c =  0.7858   42
 Side 2  free  transition at x/c =  0.2225   30

   4   rms: 0.2202E+00   max: 0.1268E+01   D at   46  1
       a = -3.200      CL =  0.2943
      Cm = -0.1903     CD =  0.03159   =>   CDf =  0.00720    CDp =  0.02440

 Side 1  free  transition at x/c =  0.7690   41
 Side 2  free  transition at x/c =  0.2157   30

   5   rms: 0.1757E+00   max: -.1220E+01   T at   41  1   RLX: 0.410
       a = -3.200      CL =  0.3870
      Cm = -0.2089     CD =  0.02798   =>   CDf =  0.00708    CDp =  0.02090

 Side 1  free  transition at x/c =  0.7856   42
 Side 2  free  transition at x/c =  0.2224   30

   6   rms: 0.2154E+00   max: 0.1263E+01   D at   46  1
       a = -3.200      CL =  0.2960
      Cm = -0.1906     CD =  0.03158   =>   CDf =  0.00720    CDp =  0.02438

 Side 1  free  transition at x/c =  0.7690   41
 Side 2  free  transition at x/c =  0.2158   30

   7   rms: 0.1730E+00   max: -.1203E+01   T at   41  1   RLX: 0.415
       a = -3.200      CL =  0.3885
      Cm = -0.2091     CD =  0.02790   =>   CDf =  0.00708    CDp =  0.02082

 Side 1  free  transition at x/c =  0.7856   42
 Side 2  free  transition at x/c =  0.2225   30

   8   rms: 0.2177E+00   max: 0.1268E+01   D at   46  1
       a = -3.200      CL =  0.2949
      Cm = -0.1904     CD =  0.03159   =>   CDf =  0.00720    CDp =  0.02439

 Side 1  free  transition at x/c =  0.7690   41
 Side 2  free  transition at x/c =  0.2158   30

   9   rms: 0.1763E+00   max: -.1228E+01   T at   41  1   RLX: 0.407
       a = -3.200      CL =  0.3873
      Cm = -0.2089     CD =  0.02794   =>   CDf =  0.00708    CDp =  0.02086

 Side 1  free  transition at x/c =  0.7856   42
 Side 2  free  transition at x/c =  0.2225   30

  10   rms: 0.2157E+00   max: 0.1264E+01   D at   46  1
       a = -3.200      CL =  0.2959
      Cm = -0.1906     CD =  0.03157   =>   CDf =  0.00720    CDp =  0.02438
 VISCAL:  Convergence failed

.OPERva   c>  
.OPERva   c>  
.OPERva   c>   Calculating wake trajectory ...
 Calculating source influence matrix ...

 Solving BL system ...

 Side 1  free  transition at x/c =  0.7690   41
 Side 2  free  transition at x/c =  0.2158   30

   1   rms: 0.2103E+00   max: -.1281E+01   T at   41  1   RLX: 0.390
       a = -3.000      CL =  0.4019
      Cm = -0.2100     CD =  0.02766   =>   CDf =  0.00708    CDp =  0.02058

 Side 1  free  transition at x/c =  0.7858   42
 Side 2  free  transition at x/c =  0.2246   31

   2   rms: 0.2183E+00   max: 0.1252E+01   D at   46  1
       a = -3.000      CL =  0.3254
      Cm = -0.1914     CD =  0.03171   =>   CDf =  0.00722    CDp =  0.02449

 MRCHDU: Convergence failed at  43  side 1    Res =  0.1353E+01
 MRCHDU: Convergence failed at  44  side 1    Res =  0.5487E+01
 MRCHDU: Convergence failed at  45  side 1    Res =  0.3276E+01
 MRCHDU: Convergence failed at  46  side 1    Res =  0.4798E+01
 MRCHDU: Convergence failed at  47  side 1    Res =  0.3590E+01
 MRCHDU: Convergence failed at  48  side 1    Res =  0.3376E+01
 MRCHDU: Convergence failed at  49  side 1    Res =  0.4981E+01
 MRCHDU: Convergence failed at  50  side 1    Res =  0.3877E+02
 Side 1  free  transition at x/c =  0.7682   41
 Side 2  free  transition at x/c =  0.2175   30

   3   rms: 0.3880E+00   max: 0.3256E+01   D at   50  1   RLX: 0.461
       a = -3.000      CL =  0.3400
      Cm = -0.2169     CD =  0.02091   =>   CDf =  0.00706    CDp =  0.01385

 Side 1  free  transition at x/c =  0.7502   41
 Side 2  free  transition at x/c =  0.2162   30

   4   rms: 0.5296E-01   max: -.2550E+00   D at   44  1
       a = -3.000      CL =  0.2828
      Cm = -0.1871     CD =  0.03377   =>   CDf =  0.00701    CDp =  0.02675

 Side 1  free  transition at x/c =  0.7462   41
 Side 2  free  transition at x/c =  0.2176   30

   5   rms: 0.8307E-02   max: -.4437E-01   T at   41  1
       a = -3.000      CL =  0.2854
      Cm = -0.1873     CD =  0.03308   =>   CDf =  0.00702    CDp =  0.02606

 Side 1  free  transition at x/c =  0.7469   41
 Side 2  free  transition at x/c =  0.2175   30

   6   rms: 0.4986E-03   max: -.2847E-02   T at   41  1
       a = -3.000      CL =  0.2855
      Cm = -0.1873     CD =  0.03307   =>   CDf =  0.00702    CDp =  0.02605

 Side 1  free  transition at x/c =  0.7469   41
 Side 2  free  transition at x/c =  0.2175   30

   7   rms: 0.4322E-05   max: -.2441E-04   T at   41  1
       a = -3.000      CL =  0.2855
      Cm = -0.1873     CD =  0.03307   =>   CDf =  0.00702    CDp =  0.02605
 plradd ia,ip,cpol            1          49  4.38628830E-02

 Point added to stored polar  1
 Save file unspecified or not available
 Dump file unspecified or not available

.OPERva   c>  
.OPERva   c>  
.OPERva   c>   Calculating wake trajectory ...
 Calculating source influence matrix ...

 Solving BL system ...

 Side 1  free  transition at x/c =  0.7469   41
 Side 2  free  transition at x/c =  0.2175   30

   1   rms: 0.3156E-01   max: -.1355E+00   T at   30  2   RLX: 0.781
       a = -2.800      CL =  0.3101
      Cm = -0.1885     CD =  0.03274   =>   CDf =  0.00703    CDp =  0.02572

 Side 1  free  transition at x/c =  0.7464   41
 Side 2  free  transition at x/c =  0.2218   30

   2   rms: 0.7166E-02   max: 0.3232E-01   C at   30  2
       a = -2.800      CL =  0.3172
      Cm = -0.1888     CD =  0.03265   =>   CDf =  0.00707    CDp =  0.02558

 Side 1  free  transition at x/c =  0.7463   41
 Side 2  free  transition at x/c =  0.2226   30

   3   rms: 0.7864E-04   max: 0.8073E-03   D at   30  2
       a = -2.800      CL =  0.3172
      Cm = -0.1888     CD =  0.03265   =>   CDf =  0.00709    CDp =  0.02556
 plradd ia,ip,cpol            2          49  4.38628830E-02

 Point added to stored polar  1
 Save file unspecified or not available
 Dump file unspecified or not available

.OPERva   c>  
.OPERva   c>  
.OPERva   c>   Calculating wake trajectory ...
 Calculating source influence matrix ...

 Solving BL system ...

 Side 1  free  transition at x/c =  0.7463   41
 Side 2  free  transition at x/c =  0.2226   30

   1   rms: 0.3260E-01   max: 0.1767E+00   C at   30  2   RLX: 0.788
       a = -2.600      CL =  0.3422
      Cm = -0.1899     CD =  0.03233   =>   CDf =  0.00709    CDp =  0.02524

 Side 1  free  transition at x/c =  0.7458   41
 Side 2  free  transition at x/c =  0.2272   31

   2   rms: 0.1030E-01   max: -.5575E-01   T at   31  2
       a = -2.600      CL =  0.3502
      Cm = -0.1907     CD =  0.03191   =>   CDf =  0.00709    CDp =  0.02481

 Side 1  free  transition at x/c =  0.7459   41
 Side 2  free  transition at x/c =  0.2319   31

   3   rms: 0.3233E-02   max: 0.3080E-01   T at   31  2
       a = -2.600      CL =  0.3501
      Cm = -0.1906     CD =  0.03195   =>   CDf =  0.00703    CDp =  0.02492

 Side 1  free  transition at x/c =  0.7459   41
 Side 2  free  transition at x/c =  0.2310   31

   4   rms: 0.8007E-04   max: -.7534E-03   T at    2  2
       a = -2.600      CL =  0.3501
      Cm = -0.1906     CD =  0.03195   =>   CDf =  0.00704    CDp =  0.02491
 plradd ia,ip,cpol            3          49  4.38628830E-02

 Point added to stored polar  1
 Save file unspecified or not available
 Dump file unspecified or not available

.OPERva   c>  
.OPERva   c>  
.OPERva   c>   Calculating wake trajectory ...
 Calculating source influence matrix ...

 Solving BL system ...

 Side 1  free  transition at x/c =  0.7459   41
 Side 2  free  transition at x/c =  0.2309   31

   1   rms: 0.9328E-01   max: -.1081E+01   T at    2  2   RLX: 0.463
       a = -2.400      CL =  0.3651
      Cm = -0.1914     CD =  0.03167   =>   CDf =  0.00688    CDp =  0.02479

 Side 1  free  transition at x/c =  0.7456   42
 Side 2  free  transition at x/c =  0.2347   30

   2   rms: 0.1888E-01   max: 0.7801E-01   D at   30  2
       a = -2.400      CL =  0.3823
      Cm = -0.1922     CD =  0.03139   =>   CDf =  0.00701    CDp =  0.02438

 Side 1  free  transition at x/c =  0.7453   42
 Side 2  free  transition at x/c =  0.2382   30

   3   rms: 0.5820E-03   max: -.6800E-02   D at   30  2
       a = -2.400      CL =  0.3823
      Cm = -0.1922     CD =  0.03140   =>   CDf =  0.00699    CDp =  0.02440

 Side 1  free  transition at x/c =  0.7453   42
 Side 2  free  transition at x/c =  0.2382   30

   4   rms: 0.1626E-05   max: 0.9726E-05   D at   30  2
       a = -2.400      CL =  0.3823
      Cm = -0.1922     CD =  0.03140   =>   CDf =  0.00699    CDp =  0.02440
 plradd ia,ip,cpol            4          50  4.38628830E-02

 Point added to stored polar  1
 Save file unspecified or not available
 Dump file unspecified or not available

.OPERva   c>  
.OPERva   c>  
.OPERva   c>   Calculating wake trajectory ...
 Calculating source influence matrix ...

 Solving BL system ...

 Side 1  free  transition at x/c =  0.7453   42
 Side 2  free  transition at x/c =  0.2382   30

   1   rms: 0.3262E-01   max: -.1417E+00   T at   30  2   RLX: 0.803
       a = -2.200      CL =  0.4080
      Cm = -0.1934     CD =  0.03098   =>   CDf =  0.00700    CDp =  0.02399

 Side 1  free  transition at x/c =  0.7450   42
 Side 2  free  transition at x/c =  0.2434   30

   2   rms: 0.7311E-02   max: -.3869E-01   T at   30  2
       a = -2.200      CL =  0.4144
      Cm = -0.1937     CD =  0.03088   =>   CDf =  0.00700    CDp =  0.02388

 Side 1  free  transition at x/c =  0.7448   42
 Side 2  free  transition at x/c =  0.2451   30

   3   rms: 0.1098E-03   max: -.9051E-03   D at   30  2
       a = -2.200      CL =  0.4144
      Cm = -0.1937     CD =  0.03088   =>   CDf =  0.00701    CDp =  0.02388

 Side 1  free  transition at x/c =  0.7448   42
 Side 2  free  transition at x/c =  0.2451   30

   4   rms: 0.1715E-05   max: -.8379E-05   D at   40  2
       a = -2.200      CL =  0.4144
      Cm = -0.1937     CD =  0.03088   =>   CDf =  0.00701    CDp =  0.02388
 plradd ia,ip,cpol            5          50  4.38628830E-02

 Point added to stored polar  1
 Save file unspecified or not available
 Dump file unspecified or not available

.OPERva   c>  
.OPERva   c>  
.OPERva   c>   Calculating wake trajectory ...
 Calculating source influence matrix ...

 Solving BL system ...

 Side 1  free  transition at x/c =  0.7448   42
 Side 2  free  transition at x/c =  0.2451   30

   1   rms: 0.3204E-01   max: -.1329E+00   T at   30  2   RLX: 0.811
       a = -2.000      CL =  0.4404
      Cm = -0.1949     CD =  0.03048   =>   CDf =  0.00701    CDp =  0.02348

 Side 1  free  transition at x/c =  0.7446   41
 Side 2  free  transition at x/c =  0.2505   30

   2   rms: 0.1046E-01   max: -.4776E-01   T at   41  1
       a = -2.000      CL =  0.4523
      Cm = -0.1961     CD =  0.03009   =>   CDf =  0.00704    CDp =  0.02305

 Side 1  free  transition at x/c =  0.7463   42
 Side 2  free  transition at x/c =  0.2519   30

   3   rms: 0.3810E-01   max: 0.1814E+00   D at   43  1
       a = -2.000      CL =  0.4460
      Cm = -0.1951     CD =  0.03026   =>   CDf =  0.00707    CDp =  0.02319

 Side 1  free  transition at x/c =  0.7447   41
 Side 2  free  transition at x/c =  0.2514   30

   4   rms: 0.5687E-02   max: -.3732E-01   T at   41  1
       a = -2.000      CL =  0.4520
      Cm = -0.1960     CD =  0.03011   =>   CDf =  0.00706    CDp =  0.02305

 Side 1  free  transition at x/c =  0.7462   42
 Side 2  free  transition at x/c =  0.2519   30

   5   rms: 0.3686E-01   max: 0.1748E+00   D at   43  1
       a = -2.000      CL =  0.4462
      Cm = -0.1951     CD =  0.03026   =>   CDf =  0.00706    CDp =  0.02319

 Side 1  free  transition at x/c =  0.7448   41
 Side 2  free  transition at x/c =  0.2514   30

   6   rms: 0.5572E-02   max: -.3713E-01   T at   41  1
       a = -2.000      CL =  0.4520
      Cm = -0.1960     CD =  0.03011   =>   CDf =  0.00706    CDp =  0.02305

 Side 1  free  transition at x/c =  0.7462   42
 Side 2  free  transition at x/c =  0.2519   30

   7   rms: 0.3688E-01   max: 0.1748E+00   D at   43  1
       a = -2.000      CL =  0.4462
      Cm = -0.1951     CD =  0.03026   =>   CDf =  0.00706    CDp =  0.02319

 Side 1  free  transition at x/c =  0.7448   41
 Side 2  free  transition at x/c =  0.2514   30

   8   rms: 0.5573E-02   max: -.3712E-01   T at   41  1
       a = -2.000      CL =  0.4520
      Cm = -0.1960     CD =  0.03011   =>   CDf =  0.00706    CDp =  0.02305

 Side 1  free  transition at x/c =  0.7462   42
 Side 2  free  transition at x/c =  0.2519   30

   9   rms: 0.3688E-01   max: 0.1748E+00   D at   43  1
       a = -2.000      CL =  0.4462
      Cm = -0.1951     CD =  0.03026   =>   CDf =  0.00706    CDp =  0.02319

 Side 1  free  transition at x/c =  0.7448   41
 Side 2  free  transition at x/c =  0.2514   30

  10   rms: 0.5573E-02   max: -.3712E-01   T at   41  1
       a = -2.000      CL =  0.4520
      Cm = -0.1960     CD =  0.03011   =>   CDf =  0.00706    CDp =  0.02305
 VISCAL:  Convergence failed

.OPERva   c>  
.OPERva   c>  
.OPERva   c>   Calculating wake trajectory ...
 Calculating source influence matrix ...

 Solving BL system ...

 Side 1  free  transition at x/c =  0.7462   42
 Side 2  free  transition at x/c =  0.2519   30

   1   rms: 0.4217E-01   max: 0.1640E+00   T at   42  1   RLX: 0.819
       a = -1.800      CL =  0.4741
      Cm = -0.1966     CD =  0.02944   =>   CDf =  0.00707    CDp =  0.02237

 Side 1  free  transition at x/c =  0.7447   41
 Side 2  free  transition at x/c =  0.2564   31

   2   rms: 0.1709E-01   max: -.7479E-01   T at   41  1
       a = -1.800      CL =  0.4913
      Cm = -0.1989     CD =  0.02910   =>   CDf =  0.00708    CDp =  0.02202

 Side 1  free  transition at x/c =  0.7476   42
 Side 2  free  transition at x/c =  0.2631   31

   3   rms: 0.5766E-01   max: 0.2702E+00   D at   42  1
       a = -1.800      CL =  0.4768
      Cm = -0.1966     CD =  0.02965   =>   CDf =  0.00703    CDp =  0.02263

 Side 1  free  transition at x/c =  0.7443   41
 Side 2  free  transition at x/c =  0.2596   31

   4   rms: 0.1387E-01   max: -.9716E-01   T at   41  1
       a = -1.800      CL =  0.4919
      Cm = -0.1990     CD =  0.02914   =>   CDf =  0.00705    CDp =  0.02209

 Side 1  free  transition at x/c =  0.7478   42
 Side 2  free  transition at x/c =  0.2617   31

   5   rms: 0.6020E-01   max: 0.2858E+00   D at   42  1
       a = -1.800      CL =  0.4762
      Cm = -0.1964     CD =  0.02968   =>   CDf =  0.00704    CDp =  0.02264

 Side 1  free  transition at x/c =  0.7443   41
 Side 2  free  transition at x/c =  0.2594   31

   6   rms: 0.1436E-01   max: -.9886E-01   T at   41  1
       a = -1.800      CL =  0.4919
      Cm = -0.1990     CD =  0.02914   =>   CDf =  0.00705    CDp =  0.02208

 Side 1  free  transition at x/c =  0.7478   42
 Side 2  free  transition at x/c =  0.2617   31

   7   rms: 0.6031E-01   max: 0.2865E+00   D at   42  1
       a = -1.800      CL =  0.4762
      Cm = -0.1964     CD =  0.02968   =>   CDf =  0.00704    CDp =  0.02264

 Side 1  free  transition at x/c =  0.7443   41
 Side 2  free  transition at x/c =  0.2594   31

   8   rms: 0.1437E-01   max: -.9890E-01   T at   41  1
       a = -1.800      CL =  0.4919
      Cm = -0.1990     CD =  0.02914   =>   CDf =  0.00705    CDp =  0.02208

 Side 1  free  transition at x/c =  0.7478   42
 Side 2  free  transition at x/c =  0.2617   31

   9   rms: 0.6031E-01   max: 0.2865E+00   D at   42  1
       a = -1.800      CL =  0.4762
      Cm = -0.1964     CD =  0.02968   =>   CDf =  0.00704    CDp =  0.02264

 Side 1  free  transition at x/c =  0.7443   41
 Side 2  free  transition at x/c =  0.2594   31

  10   rms: 0.1437E-01   max: -.9890E-01   T at   41  1
       a = -1.800      CL =  0.4919
      Cm = -0.1990     CD =  0.02914   =>   CDf =  0.00705    CDp =  0.02208
 VISCAL:  Convergence failed

.OPERva   c>  
.OPERva   c>  
.OPERva   c>   Calculating wake trajectory ...
 Calculating source influence matrix ...

 Solving BL system ...

 Side 1  free  transition at x/c =  0.7478   42
 Side 2  free  transition at x/c =  0.2617   31

   1   rms: 0.5771E-01   max: 0.2579E+00   T at   42  1   RLX: 0.825
       a = -1.600      CL =  0.5070
      Cm = -0.1987     CD =  0.02853   =>   CDf =  0.00683    CDp =  0.02170

 Side 1  free  transition at x/c =  0.7444   42
 Side 2  free  transition at x/c =  0.2678   30

   2   rms: 0.2280E-01   max: -.1341E+00   T at   42  1
       a = -1.600      CL =  0.5322
      Cm = -0.2019     CD =  0.02825   =>   CDf =  0.00698    CDp =  0.02126

 Side 1  free  transition at x/c =  0.7495   43
 Side 2  free  transition at x/c =  0.2707   30

   3   rms: 0.8206E-01   max: 0.3958E+00   D at   43  1
       a = -1.600      CL =  0.5075
      Cm = -0.1979     CD =  0.02904   =>   CDf =  0.00699    CDp =  0.02205

 Side 1  free  transition at x/c =  0.7441   42
 Side 2  free  transition at x/c =  0.2679   30

   4   rms: 0.2234E-01   max: -.1466E+00   T at   42  1
       a = -1.600      CL =  0.5319
      Cm = -0.2018     CD =  0.02828   =>   CDf =  0.00698    CDp =  0.02130

 Side 1  free  transition at x/c =  0.7494   43
 Side 2  free  transition at x/c =  0.2707   30

   5   rms: 0.8135E-01   max: 0.3938E+00   D at   43  1
       a = -1.600      CL =  0.5076
      Cm = -0.1979     CD =  0.02904   =>   CDf =  0.00699    CDp =  0.02205

 Side 1  free  transition at x/c =  0.7441   42
 Side 2  free  transition at x/c =  0.2679   30

   6   rms: 0.2215E-01   max: -.1460E+00   T at   42  1
       a = -1.600      CL =  0.5319
      Cm = -0.2018     CD =  0.02828   =>   CDf =  0.00698    CDp =  0.02130

 Side 1  free  transition at x/c =  0.7494   43
 Side 2  free  transition at x/c =  0.2707   30

   7   rms: 0.8131E-01   max: 0.3935E+00   D at   43  1
       a = -1.600      CL =  0.5077
      Cm = -0.1979     CD =  0.02904   =>   CDf =  0.00699    CDp =  0.02205

 Side 1  free  transition at x/c =  0.7441   42
 Side 2  free  transition at x/c =  0.2680   30

   8   rms: 0.2214E-01   max: -.1460E+00   T at   42  1
       a = -1.600      CL =  0.5319
      Cm = -0.2018     CD =  0.02828   =>   CDf =  0.00698    CDp =  0.02130

 Side 1  free  transition at x/c =  0.7494   43
 Side 2  free  transition at x/c =  0.2707   30

   9   rms: 0.8131E-01   max: 0.3935E+00   D at   43  1
       a = -1.600      CL =  0.5077
      Cm = -0.1979     CD =  0.02904   =>   CDf =  0.00699    CDp =  0.02205

 Side 1  free  transition at x/c =  0.7441   42
 Side 2  free  transition at x/c =  0.2680   30

  10   rms: 0.2215E-01   max: -.1460E+00   T at   42  1
       a = -1.600      CL =  0.5319
      Cm = -0.2018     CD =  0.02828   =>   CDf =  0.00698    CDp =  0.02130
 VISCAL:  Convergence failed

.OPERva   c>  
.OPERva   c>  
.OPERva   c>   Calculating wake trajectory ...
 Calculating source influence matrix ...

 Solving BL system ...

 Side 1  free  transition at x/c =  0.7494   43
 Side 2  free  transition at x/c =  0.2707   30

   1   rms: 0.7486E-01   max: 0.3515E+00   D at   43  1   RLX: 0.831
       a = -1.400      CL =  0.5403
      Cm = -0.2005     CD =  0.02787   =>   CDf =  0.00699    CDp =  0.02088

 Side 1  free  transition at x/c =  0.7443   42
 Side 2  free  transition at x/c =  0.2749   30

   2   rms: 0.2948E-01   max: -.1769E+00   T at   42  1
       a = -1.400      CL =  0.5733
      Cm = -0.2049     CD =  0.02739   =>   CDf =  0.00698    CDp =  0.02041

 Side 1  free  transition at x/c =  0.7513   43
 Side 2  free  transition at x/c =  0.2795   30

   3   rms: 0.1062E+00   max: 0.5168E+00   D at   47  1
       a = -1.400      CL =  0.5346
      Cm = -0.1986     CD =  0.02860   =>   CDf =  0.00701    CDp =  0.02159

 Side 1  free  transition at x/c =  0.7435   42
 Side 2  free  transition at x/c =  0.2753   30

   4   rms: 0.3615E-01   max: -.2253E+00   T at   42  1
       a = -1.400      CL =  0.5753
      Cm = -0.2052     CD =  0.02734   =>   CDf =  0.00698    CDp =  0.02036

 Side 1  free  transition at x/c =  0.7521   43
 Side 2  free  transition at x/c =  0.2797   30

   5   rms: 0.1142E+00   max: 0.5564E+00   D at   47  1
       a = -1.400      CL =  0.5327
      Cm = -0.1982     CD =  0.02864   =>   CDf =  0.00701    CDp =  0.02163

 Side 1  free  transition at x/c =  0.7434   42
 Side 2  free  transition at x/c =  0.2751   30

   6   rms: 0.3745E-01   max: -.2263E+00   T at   42  1
       a = -1.400      CL =  0.5751
      Cm = -0.2052     CD =  0.02735   =>   CDf =  0.00698    CDp =  0.02037

 Side 1  free  transition at x/c =  0.7520   43
 Side 2  free  transition at x/c =  0.2797   30

   7   rms: 0.1137E+00   max: 0.5538E+00   D at   47  1
       a = -1.400      CL =  0.5329
      Cm = -0.1983     CD =  0.02864   =>   CDf =  0.00701    CDp =  0.02163

 Side 1  free  transition at x/c =  0.7434   42
 Side 2  free  transition at x/c =  0.2751   30

   8   rms: 0.3723E-01   max: -.2254E+00   T at   42  1
       a = -1.400      CL =  0.5750
      Cm = -0.2052     CD =  0.02735   =>   CDf =  0.00698    CDp =  0.02037

 Side 1  free  transition at x/c =  0.7520   43
 Side 2  free  transition at x/c =  0.2797   30

   9   rms: 0.1135E+00   max: 0.5529E+00   D at   47  1
       a = -1.400      CL =  0.5329
      Cm = -0.1983     CD =  0.02864   =>   CDf =  0.00701    CDp =  0.02162

 Side 1  free  transition at x/c =  0.7434   42
 Side 2  free  transition at x/c =  0.2751   30

  10   rms: 0.3719E-01   max: -.2253E+00   T at   42  1
       a = -1.400      CL =  0.5750
      Cm = -0.2052     CD =  0.02735   =>   CDf =  0.00698    CDp =  0.02037
 VISCAL:  Convergence failed

.OPERva   c>  
.OPERva   c>  
.OPERva   c>   Calculating wake trajectory ...
 Calculating source influence matrix ...

 Solving BL system ...

 Side 1  free  transition at x/c =  0.7520   43
 Side 2  free  transition at x/c =  0.2797   30

   1   rms: 0.1028E+00   max: 0.4968E+00   D at   47  1   RLX: 0.831
       a = -1.200      CL =  0.5698
      Cm = -0.2019     CD =  0.02725   =>   CDf =  0.00702    CDp =  0.02023

 Side 1  free  transition at x/c =  0.7438   42
 Side 2  free  transition at x/c =  0.2823   30

   2   rms: 0.4417E-01   max: -.2534E+00   T at   42  1
       a = -1.200      CL =  0.6186
      Cm = -0.2086     CD =  0.02640   =>   CDf =  0.00701    CDp =  0.01939

 Side 1  free  transition at x/c =  0.7544   43
 Side 2  free  transition at x/c =  0.2870   30

   3   rms: 0.1347E+00   max: 0.6632E+00   D at   48  1
       a = -1.200      CL =  0.5665
      Cm = -0.1999     CD =  0.02779   =>   CDf =  0.00709    CDp =  0.02071

 Side 1  free  transition at x/c =  0.7436   42
 Side 2  free  transition at x/c =  0.2830   30

   4   rms: 0.4395E-01   max: -.2413E+00   T at   42  1
       a = -1.200      CL =  0.6151
      Cm = -0.2080     CD =  0.02658   =>   CDf =  0.00702    CDp =  0.01957

 Side 1  free  transition at x/c =  0.7534   43
 Side 2  free  transition at x/c =  0.2867   30

   5   rms: 0.1263E+00   max: 0.6269E+00   D at   48  1
       a = -1.200      CL =  0.5679
      Cm = -0.2002     CD =  0.02782   =>   CDf =  0.00708    CDp =  0.02074

 Side 1  free  transition at x/c =  0.7436   42
 Side 2  free  transition at x/c =  0.2830   30

   6   rms: 0.4403E-01   max: -.2532E+00   T at   42  1
       a = -1.200      CL =  0.6166
      Cm = -0.2083     CD =  0.02652   =>   CDf =  0.00702    CDp =  0.01951

 Side 1  free  transition at x/c =  0.7538   43
 Side 2  free  transition at x/c =  0.2868   30

   7   rms: 0.1300E+00   max: 0.6425E+00   D at   48  1
       a = -1.200      CL =  0.5675
      Cm = -0.2001     CD =  0.02779   =>   CDf =  0.00708    CDp =  0.02071

 Side 1  free  transition at x/c =  0.7436   42
 Side 2  free  transition at x/c =  0.2830   30

   8   rms: 0.4350E-01   max: -.2445E+00   T at   42  1
       a = -1.200      CL =  0.6156
      Cm = -0.2081     CD =  0.02656   =>   CDf =  0.00702    CDp =  0.01954

 Side 1  free  transition at x/c =  0.7535   43
 Side 2  free  transition at x/c =  0.2868   30

   9   rms: 0.1276E+00   max: 0.6324E+00   D at   48  1
       a = -1.200      CL =  0.5677
      Cm = -0.2002     CD =  0.02781   =>   CDf =  0.00708    CDp =  0.02073

 Side 1  free  transition at x/c =  0.7436   42
 Side 2  free  transition at x/c =  0.2830   30

  10   rms: 0.4395E-01   max: -.2509E+00   T at   42  1
       a = -1.200      CL =  0.6163
      Cm = -0.2082     CD =  0.02653   =>   CDf =  0.00702    CDp =  0.01951
 VISCAL:  Convergence failed

.OPERva   c>  
.OPERva   c>  
.OPERva   c>   Calculating wake trajectory ...
 Calculating source influence matrix ...

 Solving BL system ...

 Side 1  free  transition at x/c =  0.7537   43
 Side 2  free  transition at x/c =  0.2868   30

   1   rms: 0.1175E+00   max: 0.5868E+00   D at   48  1   RLX: 0.842
       a = -1.000      CL =  0.6058
      Cm = -0.2042     CD =  0.02646   =>   CDf =  0.00709    CDp =  0.01937

 Side 1  free  transition at x/c =  0.7439   42
 Side 2  free  transition at x/c =  0.2886   31

   2   rms: 0.5535E-01   max: -.2708E+00   T at   42  1
       a = -1.000      CL =  0.6617
      Cm = -0.2124     CD =  0.02514   =>   CDf =  0.00682    CDp =  0.01832

 Side 1  free  transition at x/c =  0.7558   44
 Side 2  free  transition at x/c =  0.3079   30
 idif Ue xi dudx           1  0.15462491      6.39522076E-03   24.178198    
 Uenew xinew           2  2.85690185E-02  1.18160248E-03

   3   rms: 0.1538E+00   max: 0.7820E+00   D at   50  1
       a = -1.000      CL =  0.5970
      Cm = -0.2012     CD =  0.02696   =>   CDf =  0.00717    CDp =  0.01979

 Side 1  free  transition at x/c =  0.7435   42
 Side 2  free  transition at x/c =  0.2916   31

   4   rms: 0.5658E-01   max: -.2789E+00   T at   42  1
       a = -1.000      CL =  0.6595
      Cm = -0.2119     CD =  0.02538   =>   CDf =  0.00680    CDp =  0.01859

 Side 1  free  transition at x/c =  0.7554   44
 Side 2  free  transition at x/c =  0.3021   30
 idif Ue xi dudx           1  0.15431127      6.38258457E-03   24.176926    
 Uenew xinew           2  2.82620117E-02  1.16896629E-03

   5   rms: 0.1491E+00   max: 0.7521E+00   D at   50  1
       a = -1.000      CL =  0.5975
      Cm = -0.2012     CD =  0.02702   =>   CDf =  0.00721    CDp =  0.01981

 Side 1  free  transition at x/c =  0.7434   42
 Side 2  free  transition at x/c =  0.2914   31

   6   rms: 0.5670E-01   max: -.2861E+00   T at   42  1
       a = -1.000      CL =  0.6604
      Cm = -0.2121     CD =  0.02534   =>   CDf =  0.00680    CDp =  0.01854

 Side 1  free  transition at x/c =  0.7557   44
 Side 2  free  transition at x/c =  0.3024   30
 idif Ue xi dudx           1  0.15450941      6.39081001E-03   24.176811    
 Uenew xinew           2  2.84607429E-02  1.17719173E-03

   7   rms: 0.1514E+00   max: 0.7697E+00   D at   50  1
       a = -1.000      CL =  0.5971
      Cm = -0.2012     CD =  0.02701   =>   CDf =  0.00721    CDp =  0.01980

 Side 1  free  transition at x/c =  0.7435   42
 Side 2  free  transition at x/c =  0.2914   31

   8   rms: 0.5639E-01   max: -.2800E+00   T at   42  1
       a = -1.000      CL =  0.6597
      Cm = -0.2120     CD =  0.02537   =>   CDf =  0.00680    CDp =  0.01857

 Side 1  free  transition at x/c =  0.7555   44
 Side 2  free  transition at x/c =  0.3023   30
 idif Ue xi dudx           1  0.15435633      6.38437271E-03   24.177212    
 Uenew xinew           2  2.83055771E-02  1.17075443E-03

   9   rms: 0.1496E+00   max: 0.7560E+00   D at   50  1
       a = -1.000      CL =  0.5974
      Cm = -0.2012     CD =  0.02702   =>   CDf =  0.00721    CDp =  0.01981

 Side 1  free  transition at x/c =  0.7434   42
 Side 2  free  transition at x/c =  0.2914   31

  10   rms: 0.5665E-01   max: -.2849E+00   T at   42  1
       a = -1.000      CL =  0.6603
      Cm = -0.2121     CD =  0.02535   =>   CDf =  0.00680    CDp =  0.01855
 VISCAL:  Convergence failed

.OPERva   c>  
.OPERva   c>  
.OPERva   c>   Calculating wake trajectory ...
 Calculating source influence matrix ...

 Solving BL system ...

 Side 1  free  transition at x/c =  0.7557   44
 Side 2  free  transition at x/c =  0.3024   30

   1   rms: 0.1350E+00   max: 0.7141E+00   D at   50  1   RLX: 0.848
       a = -0.800      CL =  0.6388
      Cm = -0.2062     CD =  0.02552   =>   CDf =  0.00698    CDp =  0.01854

 Side 1  free  transition at x/c =  0.7438   43
 Side 2  free  transition at x/c =  0.3011   30

   2   rms: 0.6306E-01   max: -.3092E+00   T at   43  1
       a = -0.800      CL =  0.7066
      Cm = -0.2160     CD =  0.02431   =>   CDf =  0.00696    CDp =  0.01735

 MRCHDU: Convergence failed at  47  side 1    Res =  0.1177E+01
 MRCHDU: Convergence failed at  48  side 1    Res =  0.1023E+01
 MRCHDU: Convergence failed at  49  side 1    Res =  0.2937E+01
 MRCHDU: Convergence failed at  50  side 1    Res =  0.3017E+01
 MRCHDU: Convergence failed at  51  side 1    Res =  0.1559E+01
 MRCHDU: Convergence failed at  52  side 1    Res =  0.3702E+01
 MRCHDU: Convergence failed at  53  side 1    Res =  0.2383E+02
 Side 1  free  transition at x/c =  0.7583   44
 Side 2  free  transition at x/c =  0.3096   30

   3   rms: 0.3156E+00   max: 0.2853E+01   D at   53  1   RLX: 0.526
       a = -0.800      CL =  0.8009
      Cm = -0.2483     CD =  0.01531   =>   CDf =  0.00701    CDp =  0.00830

 Side 1  free  transition at x/c =  0.7575   44
 Side 2  free  transition at x/c =  0.3167   30

   4   rms: 0.1501E+00   max: 0.1372E+01   D at   51  1
       a = -0.800      CL =  0.8672
      Cm = -0.2478     CD =  0.02108   =>   CDf =  0.00711    CDp =  0.01396

 MRCHDU: Convergence failed at  50  side 1    Res =  0.2106E+01
 MRCHDU: Convergence failed at  51  side 1    Res =  0.3493E+01
 MRCHDU: Convergence failed at  52  side 1    Res =  0.2465E+01
 MRCHDU: Convergence failed at  53  side 1    Res =  0.1921E+01
 Side 1  free  transition at x/c =  0.7627   44
 Side 2  free  transition at x/c =  0.3260   31

   5   rms: 0.2391E+00   max: 0.1585E+01   D at   53  1   RLX: 0.947
       a = -0.800      CL =  0.7677
      Cm = -0.2320     CD =  0.02249   =>   CDf =  0.00697    CDp =  0.01553

 Side 1  free  transition at x/c =  0.7421   43
 Side 2  free  transition at x/c =  0.3110   30

   6   rms: 0.1145E+00   max: 0.7377E+00   D at   53  2
       a = -0.800      CL =  0.6657
      Cm = -0.2072     CD =  0.02431   =>   CDf =  0.00681    CDp =  0.01750

 MRCHDU: Convergence failed at  44  side 1    Res =  0.3987E+01
 MRCHDU: Convergence failed at  45  side 1    Res =  0.8452E+02
 MRCHDU: Convergence failed at  46  side 1    Res =  0.1243E+02
 MRCHDU: Convergence failed at  47  side 1    Res =  0.1885E+04
 MRCHDU: Convergence failed at  48  side 1    Res =  0.1478E+02
 MRCHDU: Convergence failed at  49  side 1    Res =  0.3982E+02
 MRCHDU: Convergence failed at  50  side 1    Res =  0.1453E+02
 MRCHDU: Convergence failed at  51  side 1    Res =  0.2761E+02
 MRCHDU: Convergence failed at  52  side 1    Res =  0.4346E+02
 MRCHDU: Convergence failed at  53  side 1    Res =  0.1828E+02
 Side 1  free  transition at x/c =  0.7582   44
 Side 2  free  transition at x/c =  0.3073   30

   7   rms: 0.7380E+00   max: 0.5038E+01   D at   53  1   RLX: 0.298
       a = -0.800      CL =  0.7595
      Cm = -0.2839     CD =  0.01125   =>   CDf =  0.00685    CDp =  0.00439

 Side 1  free  transition at x/c =  0.7390   43
 Side 2  free  transition at x/c =  0.3015   30

   8   rms: 0.5169E+00   max: -.4507E+01   T at   43  1   RLX: 0.111
       a = -0.800      CL =  0.7256
      Cm = -0.2402     CD =  0.02740   =>   CDf =  0.00689    CDp =  0.02051

 Side 1  free  transition at x/c =  0.7631   44
 Side 2  free  transition at x/c =  0.3075   30

   9   rms: 0.1178E+00   max: 0.6364E+00   T at   45  1
       a = -0.800      CL =  0.6390
      Cm = -0.2058     CD =  0.02571   =>   CDf =  0.00690    CDp =  0.01880

 Side 1  free  transition at x/c =  0.7409   43
 Side 2  free  transition at x/c =  0.3019   30

  10   rms: 0.8887E-01   max: -.4847E+00   T at   43  1
       a = -0.800      CL =  0.7077
      Cm = -0.2158     CD =  0.02421   =>   CDf =  0.00694    CDp =  0.01727
 VISCAL:  Convergence failed

.OPERva   c>  
.OPERva   c>  
.OPERva   c>   Calculating wake trajectory ...
 Calculating source influence matrix ...

 Solving BL system ...

 MRCHDU: Convergence failed at  44  side 1    Res =  0.2428E+02
 MRCHDU: Convergence failed at  45  side 1    Res =  0.1953E+02
 MRCHDU: Convergence failed at  46  side 1    Res =  0.2899E+02
 MRCHDU: Convergence failed at  47  side 1    Res =  0.3919E+02
 MRCHDU: Convergence failed at  48  side 1    Res =  0.2105E+02
 MRCHDU: Convergence failed at  49  side 1    Res =  0.2704E+02
 MRCHDU: Convergence failed at  50  side 1    Res =  0.1723E+02
 MRCHDU: Convergence failed at  51  side 1    Res =  0.1820E+02
 MRCHDU: Convergence failed at  52  side 1    Res =  0.2581E+03
 MRCHDU: Convergence failed at  53  side 1    Res =  0.2954E+02
 Side 1  free  transition at x/c =  0.7617   44
 Side 2  free  transition at x/c =  0.3098   30

   1   rms: 0.7634E+00   max: 0.5232E+01   D at   53  1   RLX: 0.287
       a = -0.600      CL =  0.7923
      Cm = -0.2895     CD =  0.01107   =>   CDf =  0.00686    CDp =  0.00421

 Side 1  free  transition at x/c =  0.7403   43
 Side 2  free  transition at x/c =  0.3054   30

   2   rms: 0.3083E+00   max: -.2439E+01   T at   43  1   RLX: 0.205
       a = -0.600      CL =  0.7509
      Cm = -0.2408     CD =  0.02704   =>   CDf =  0.00687    CDp =  0.02017

 MRCHDU: Convergence failed at  44  side 1    Res =  0.5341E+01
 MRCHDU: Convergence failed at  45  side 1    Res =  0.5954E+01
 MRCHDU: Convergence failed at  46  side 1    Res =  0.1629E+02
 MRCHDU: Convergence failed at  47  side 1    Res =  0.1758E+02
 MRCHDU: Convergence failed at  48  side 1    Res =  0.8226E+01
 MRCHDU: Convergence failed at  49  side 1    Res =  0.2921E+02
 MRCHDU: Convergence failed at  50  side 1    Res =  0.2360E+02
 MRCHDU: Convergence failed at  51  side 1    Res =  0.1044E+02
 MRCHDU: Convergence failed at  52  side 1    Res =  0.6891E+01
 MRCHDU: Convergence failed at  53  side 1    Res =  0.9410E+01
 Side 1  free  transition at x/c =  0.7625   44
 Side 2  free  transition at x/c =  0.3117   30

   3   rms: 0.7340E+00   max: 0.5144E+01   D at   53  1   RLX: 0.292
       a = -0.600      CL =  0.7956
      Cm = -0.2892     CD =  0.01110   =>   CDf =  0.00686    CDp =  0.00424

 Side 1  free  transition at x/c =  0.7406   43
 Side 2  free  transition at x/c =  0.3070   30

   4   rms: 0.2775E+00   max: -.2150E+01   T at   43  1   RLX: 0.233
       a = -0.600      CL =  0.7517
      Cm = -0.2398     CD =  0.02738   =>   CDf =  0.00687    CDp =  0.02051

 MRCHDU: Convergence failed at  44  side 1    Res =  0.2044E+02
 MRCHDU: Convergence failed at  45  side 1    Res =  0.5582E+01
 MRCHDU: Convergence failed at  46  side 1    Res =  0.1374E+02
 MRCHDU: Convergence failed at  47  side 1    Res =  0.2422E+02
 MRCHDU: Convergence failed at  48  side 1    Res =  0.6950E+01
 MRCHDU: Convergence failed at  49  side 1    Res =  0.2174E+02
 MRCHDU: Convergence failed at  50  side 1    Res =  0.3732E+02
 MRCHDU: Convergence failed at  51  side 1    Res =  0.1171E+02
 MRCHDU: Convergence failed at  52  side 1    Res =  0.7044E+01
 MRCHDU: Convergence failed at  53  side 1    Res =  0.8531E+01
 Side 1  free  transition at x/c =  0.7626   44
 Side 2  free  transition at x/c =  0.3131   30

   5   rms: 0.7280E+00   max: 0.5125E+01   D at   53  1   RLX: 0.293
       a = -0.600      CL =  0.7968
      Cm = -0.2890     CD =  0.01121   =>   CDf =  0.00687    CDp =  0.00434

 Side 1  free  transition at x/c =  0.7406   43
 Side 2  free  transition at x/c =  0.3079   30

   6   rms: 0.2828E+00   max: -.2212E+01   T at   43  1   RLX: 0.226
       a = -0.600      CL =  0.7533
      Cm = -0.2400     CD =  0.02757   =>   CDf =  0.00686    CDp =  0.02070

 MRCHDU: Convergence failed at  44  side 1    Res =  0.3143E+02
 MRCHDU: Convergence failed at  45  side 1    Res =  0.5925E+01
 MRCHDU: Convergence failed at  46  side 1    Res =  0.1573E+02
 MRCHDU: Convergence failed at  47  side 1    Res =  0.2043E+02
 MRCHDU: Convergence failed at  48  side 1    Res =  0.7102E+01
 MRCHDU: Convergence failed at  49  side 1    Res =  0.2474E+02
 MRCHDU: Convergence failed at  50  side 1    Res =  0.2972E+02
 MRCHDU: Convergence failed at  51  side 1    Res =  0.1084E+02
 MRCHDU: Convergence failed at  52  side 1    Res =  0.7131E+01
 MRCHDU: Convergence failed at  53  side 1    Res =  0.9106E+01
 Side 1  free  transition at x/c =  0.7623   44
 Side 2  free  transition at x/c =  0.3138   30

   7   rms: 0.7271E+00   max: 0.5125E+01   D at   53  1   RLX: 0.293
       a = -0.600      CL =  0.7965
      Cm = -0.2887     CD =  0.01128   =>   CDf =  0.00687    CDp =  0.00441

 Side 1  free  transition at x/c =  0.7404   43
 Side 2  free  transition at x/c =  0.3083   30

   8   rms: 0.3026E+00   max: -.2415E+01   T at   43  1   RLX: 0.207
       a = -0.600      CL =  0.7547
      Cm = -0.2407     CD =  0.02772   =>   CDf =  0.00686    CDp =  0.02085

 MRCHDU: Convergence failed at  44  side 1    Res =  0.2881E+01
 MRCHDU: Convergence failed at  45  side 1    Res =  0.6665E+01
 MRCHDU: Convergence failed at  46  side 1    Res =  0.2124E+02
 MRCHDU: Convergence failed at  47  side 1    Res =  0.1504E+02
 MRCHDU: Convergence failed at  48  side 1    Res =  0.7667E+01
 MRCHDU: Convergence failed at  49  side 1    Res =  0.3889E+02
 MRCHDU: Convergence failed at  50  side 1    Res =  0.2097E+02
 MRCHDU: Convergence failed at  51  side 1    Res =  0.9409E+01
 MRCHDU: Convergence failed at  52  side 1    Res =  0.7556E+01
 MRCHDU: Convergence failed at  53  side 1    Res =  0.9884E+01
 Side 1  free  transition at x/c =  0.7620   44
 Side 2  free  transition at x/c =  0.3141   30

   9   rms: 0.7274E+00   max: 0.5129E+01   D at   53  1   RLX: 0.292
       a = -0.600      CL =  0.7955
      Cm = -0.2885     CD =  0.01133   =>   CDf =  0.00686    CDp =  0.00447

 Side 1  free  transition at x/c =  0.7401   43
 Side 2  free  transition at x/c =  0.3084   30

  10   rms: 0.3366E+00   max: -.2756E+01   T at   43  1   RLX: 0.181
       a = -0.600      CL =  0.7560
      Cm = -0.2416     CD =  0.02784   =>   CDf =  0.00686    CDp =  0.02098
 VISCAL:  Convergence failed

.OPERva   c>  
.OPERva   c>  
.OPERva   c>   Calculating wake trajectory ...
 Calculating source influence matrix ...

 Solving BL system ...

 Side 1  free  transition at x/c =  0.7637   44
 Side 2  free  transition at x/c =  0.3143   30

   1   rms: 0.1127E+00   max: 0.6772E+00   T at   45  1   RLX: 0.872
       a = -0.400      CL =  0.7100
      Cm = -0.2134     CD =  0.02401   =>   CDf =  0.00692    CDp =  0.01710

 Side 1  free  transition at x/c =  0.7426   43
 Side 2  free  transition at x/c =  0.3182   30

   2   rms: 0.1021E+00   max: -.4772E+00   D at   47  1
       a = -0.400      CL =  0.7868
      Cm = -0.2214     CD =  0.02269   =>   CDf =  0.00695    CDp =  0.01574

 MRCHDU: Convergence failed at  44  side 1    Res =  0.3420E+01
 MRCHDU: Convergence failed at  45  side 1    Res =  0.1955E+02
 MRCHDU: Convergence failed at  46  side 1    Res =  0.7531E+01
 MRCHDU: Convergence failed at  47  side 1    Res =  0.7896E+01
 MRCHDU: Convergence failed at  48  side 1    Res =  0.2256E+02
 MRCHDU: Convergence failed at  49  side 1    Res =  0.1211E+02
 MRCHDU: Convergence failed at  50  side 1    Res =  0.3204E+02
 MRCHDU: Convergence failed at  51  side 1    Res =  0.1666E+02
 MRCHDU: Convergence failed at  52  side 1    Res =  0.1025E+03
 MRCHDU: Convergence failed at  53  side 1    Res =  0.1021E+03
 Side 1  free  transition at x/c =  0.7634   44
 Side 2  free  transition at x/c =  0.3276   31

   3   rms: 0.7703E+00   max: 0.5218E+01   D at   53  1   RLX: 0.287
       a = -0.400      CL =  0.8704
      Cm = -0.2988     CD =  0.01060   =>   CDf =  0.00690    CDp =  0.00370

 Side 1  free  transition at x/c =  0.7414   43
 Side 2  free  transition at x/c =  0.3195   30

   4   rms: 0.1880E+00   max: 0.3028E+00   T at   50  2   RLX: 0.666
       a = -0.400      CL =  0.8297
      Cm = -0.2426     CD =  0.02150   =>   CDf =  0.00710    CDp =  0.01440

 MRCHDU: Convergence failed at  44  side 1    Res =  0.6893E+01
 MRCHDU: Convergence failed at  45  side 1    Res =  0.5471E+01
 MRCHDU: Convergence failed at  46  side 1    Res =  0.5552E+01
 MRCHDU: Convergence failed at  47  side 1    Res =  0.1894E+02
 MRCHDU: Convergence failed at  48  side 1    Res =  0.6442E+02
 MRCHDU: Convergence failed at  49  side 1    Res =  0.1557E+02
 MRCHDU: Convergence failed at  50  side 1    Res =  0.2115E+03
 MRCHDU: Convergence failed at  51  side 1    Res =  0.2299E+02
 MRCHDU: Convergence failed at  52  side 1    Res =  0.1517E+02
 MRCHDU: Convergence failed at  53  side 1    Res =  0.2275E+02
 Side 1  free  transition at x/c =  0.7655   44
 Side 2  free  transition at x/c =  0.3277   31

   5   rms: 0.7609E+00   max: 0.5516E+01   D at   53  1   RLX: 0.272
       a = -0.400      CL =  0.8893
      Cm = -0.3052     CD =  0.01072   =>   CDf =  0.00691    CDp =  0.00381

 Side 1  free  transition at x/c =  0.7401   43
 Side 2  free  transition at x/c =  0.3204   30

   6   rms: 0.6511E+00   max: -.5881E+01   T at   43  1   RLX: 0.085
       a = -0.400      CL =  0.8459
      Cm = -0.2568     CD =  0.02537   =>   CDf =  0.00690    CDp =  0.01847

 MRCHDU: Convergence failed at  44  side 1    Res =  0.3504E+02
 MRCHDU: Convergence failed at  45  side 1    Res =  0.4490E+03
 MRCHDU: Convergence failed at  46  side 1    Res =  0.5140E+01
 MRCHDU: Convergence failed at  47  side 1    Res =  0.1034E+02
 MRCHDU: Convergence failed at  48  side 1    Res =  0.9951E+03
 MRCHDU: Convergence failed at  49  side 1    Res =  0.1423E+02
 MRCHDU: Convergence failed at  50  side 1    Res =  0.8295E+01
 MRCHDU: Convergence failed at  51  side 1    Res =  0.6573E+01
 MRCHDU: Convergence failed at  52  side 1    Res =  0.9127E+01
 MRCHDU: Convergence failed at  53  side 1    Res =  0.1271E+02
 Side 1  free  transition at x/c =  0.7631   44
 Side 2  free  transition at x/c =  0.3235   30

   7   rms: 0.7301E+00   max: 0.5125E+01   D at   53  1   RLX: 0.293
       a = -0.400      CL =  0.8685
      Cm = -0.2986     CD =  0.01053   =>   CDf =  0.00693    CDp =  0.00360

 Side 1  free  transition at x/c =  0.7407   43
 Side 2  free  transition at x/c =  0.3202   30

   8   rms: 0.2097E+00   max: 0.3712E+00   T at   50  2   RLX: 0.536
       a = -0.400      CL =  0.8427
      Cm = -0.2509     CD =  0.02103   =>   CDf =  0.00710    CDp =  0.01393

 MRCHDU: Convergence failed at  44  side 1    Res =  0.1975E+02
 MRCHDU: Convergence failed at  45  side 1    Res =  0.1201E+03
 MRCHDU: Convergence failed at  46  side 1    Res =  0.2272E+02
 MRCHDU: Convergence failed at  47  side 1    Res =  0.1582E+02
 MRCHDU: Convergence failed at  48  side 1    Res =  0.6622E+01
 MRCHDU: Convergence failed at  49  side 1    Res =  0.3250E+02
 MRCHDU: Convergence failed at  50  side 1    Res =  0.2747E+02
 MRCHDU: Convergence failed at  51  side 1    Res =  0.7336E+01
[...]

   2   rms: 0.1438E-01   max: -.6728E-01   D at   41  1
       a = 18.600      CL =  1.7998
      Cm = -0.1249     CD =  0.09787   =>   CDf =  0.00576    CDp =  0.09211

 Side 1  free  transition at x/c =  0.2708   41
 Side 2 forced transition at x/c =  1.0000   36

   3   rms: 0.1717E-02   max: -.1073E-01   D at   51  1
       a = 18.600      CL =  1.8011
      Cm = -0.1249     CD =  0.09759   =>   CDf =  0.00581    CDp =  0.09178

 Side 1  free  transition at x/c =  0.2707   41
 Side 2 forced transition at x/c =  1.0000   36

   4   rms: 0.1148E-03   max: -.5503E-03   D at   47  2
       a = 18.600      CL =  1.8013
      Cm = -0.1249     CD =  0.09760   =>   CDf =  0.00582    CDp =  0.09178

 Side 1  free  transition at x/c =  0.2707   41
 Side 2 forced transition at x/c =  1.0000   36

   5   rms: 0.2860E-05   max: 0.3012E-04   C at   36  2
       a = 18.600      CL =  1.8013
      Cm = -0.1249     CD =  0.09760   =>   CDf =  0.00582    CDp =  0.09178
 plradd ia,ip,cpol           90          65  2.58111935E-02

 Point added to stored polar  1
 Save file unspecified or not available
 Dump file unspecified or not available

.OPERva   c>  
.OPERva   c>  
.OPERva   c>   Calculating wake trajectory ...
 Calculating source influence matrix ...

 Solving BL system ...

 Side 1  free  transition at x/c =  0.2707   41
 Side 2 forced transition at x/c =  1.0000   36

   1   rms: 0.2119E-01   max: -.9673E-01   D at   41  1   RLX: 0.266
       a = 18.800      CL =  1.8042
      Cm = -0.1248     CD =  0.09777   =>   CDf =  0.00583    CDp =  0.09194

 Side 1  free  transition at x/c =  0.2694   41
 Side 2 forced transition at x/c =  1.0000   36

   2   rms: 0.1690E-01   max: -.6864E-01   D at   41  1
       a = 18.800      CL =  1.8157
      Cm = -0.1245     CD =  0.09780   =>   CDf =  0.00534    CDp =  0.09247

 Side 1  free  transition at x/c =  0.2657   41
 Side 2 forced transition at x/c =  1.0000   35

   3   rms: 0.2094E-02   max: -.1495E-01   D at   42  1
       a = 18.800      CL =  1.8156
      Cm = -0.1245     CD =  0.09777   =>   CDf =  0.00591    CDp =  0.09186

 Side 1  free  transition at x/c =  0.2654   41
 Side 2 forced transition at x/c =  1.0000   35

   4   rms: 0.6616E-03   max: -.6144E-02   D at    4  1
       a = 18.800      CL =  1.8158
      Cm = -0.1245     CD =  0.09777   =>   CDf =  0.00591    CDp =  0.09187

 Side 1  free  transition at x/c =  0.2654   41
 Side 2 forced transition at x/c =  1.0000   35

   5   rms: 0.4039E-05   max: 0.4528E-04   C at   35  2
       a = 18.800      CL =  1.8158
      Cm = -0.1245     CD =  0.09778   =>   CDf =  0.00591    CDp =  0.09187
 plradd ia,ip,cpol           91          66  2.06390303E-02

 Point added to stored polar  1
 Save file unspecified or not available
 Dump file unspecified or not available

.OPERva   c>  
.OPERva   c>  
.OPERva   c>   Calculating wake trajectory ...
 Calculating source influence matrix ...

 Solving BL system ...

 Side 1  free  transition at x/c =  0.2654   41
 Side 2 forced transition at x/c =  1.0000   35

   1   rms: 0.2774E-01   max: 0.1631E+00   D at   50  1   RLX: 0.261
       a = 19.000      CL =  1.8117
      Cm = -0.1243     CD =  0.09890   =>   CDf =  0.00591    CDp =  0.09299

 Side 1  free  transition at x/c =  0.2646   41
 Side 2 forced transition at x/c =  1.0000   35

   2   rms: 0.1960E-01   max: 0.1145E+00   D at   50  1
       a = 19.000      CL =  1.8019
      Cm = -0.1238     CD =  0.10191   =>   CDf =  0.00586    CDp =  0.09605

 Side 1  free  transition at x/c =  0.2617   41
 Side 2 forced transition at x/c =  1.0000   35

   3   rms: 0.9179E-03   max: 0.1280E-01   D at   51  1
       a = 19.000      CL =  1.8015
      Cm = -0.1237     CD =  0.10169   =>   CDf =  0.00574    CDp =  0.09596

 Side 1  free  transition at x/c =  0.2617   41
 Side 2 forced transition at x/c =  1.0000   35

   4   rms: 0.1282E-03   max: 0.1044E-02   D at   51  1
       a = 19.000      CL =  1.8014
      Cm = -0.1237     CD =  0.10171   =>   CDf =  0.00574    CDp =  0.09598

 Side 1  free  transition at x/c =  0.2616   41
 Side 2 forced transition at x/c =  1.0000   35

   5   rms: 0.6565E-05   max: -.4991E-04   C at   35  2
       a = 19.000      CL =  1.8014
      Cm = -0.1237     CD =  0.10171   =>   CDf =  0.00574    CDp =  0.09598
 plradd ia,ip,cpol           92          66  2.06390303E-02

 Point added to stored polar  1
 Save file unspecified or not available
 Dump file unspecified or not available

.OPERva   c>  
.OPERva   c>  
.OPERva   c>   Calculating wake trajectory ...
 Calculating source influence matrix ...

 Solving BL system ...

 Side 1  free  transition at x/c =  0.2617   41
 Side 2 forced transition at x/c =  1.0000   35

   1   rms: 0.2781E-01   max: 0.1698E+00   D at   50  1   RLX: 0.256
       a = 19.200      CL =  1.7972
      Cm = -0.1235     CD =  0.10287   =>   CDf =  0.00574    CDp =  0.09712

 Side 1  free  transition at x/c =  0.2605   41
 Side 2 forced transition at x/c =  1.0000   35

   2   rms: 0.1957E-01   max: 0.1180E+00   D at   50  1
       a = 19.200      CL =  1.7869
      Cm = -0.1231     CD =  0.10597   =>   CDf =  0.00570    CDp =  0.10027

 Side 1  free  transition at x/c =  0.2569   41
 Side 2 forced transition at x/c =  1.0000   35

   3   rms: 0.2976E-02   max: -.2036E-01   D at   51  1
       a = 19.200      CL =  1.7892
      Cm = -0.1230     CD =  0.10533   =>   CDf =  0.00561    CDp =  0.09972

 Side 1  free  transition at x/c =  0.2570   41
 Side 2 forced transition at x/c =  1.0000   35

   4   rms: 0.2033E-03   max: -.8332E-03   D at   51  1
       a = 19.200      CL =  1.7894
      Cm = -0.1230     CD =  0.10534   =>   CDf =  0.00562    CDp =  0.09972

 Side 1  free  transition at x/c =  0.2570   41
 Side 2 forced transition at x/c =  1.0000   35

   5   rms: 0.7431E-05   max: 0.5719E-04   C at   35  2
       a = 19.200      CL =  1.7894
      Cm = -0.1230     CD =  0.10535   =>   CDf =  0.00562    CDp =  0.09973
 plradd ia,ip,cpol           93          66  2.06390303E-02

 Point added to stored polar  1
 Save file unspecified or not available
 Dump file unspecified or not available

.OPERva   c>  
.OPERva   c>  
.OPERva   c>   Calculating wake trajectory ...
 Calculating source influence matrix ...

 Solving BL system ...

 Side 1  free  transition at x/c =  0.2570   41
 Side 2 forced transition at x/c =  1.0000   35

   1   rms: 0.2106E-01   max: 0.1142E+00   D at   50  1   RLX: 0.253
       a = 19.400      CL =  1.7879
      Cm = -0.1229     CD =  0.10614   =>   CDf =  0.00563    CDp =  0.10051

 Side 1  free  transition at x/c =  0.2558   41
 Side 2 forced transition at x/c =  1.0000   35

   2   rms: 0.1519E-01   max: 0.7883E-01   D at   50  1
       a = 19.400      CL =  1.7849
      Cm = -0.1226     CD =  0.10827   =>   CDf =  0.00561    CDp =  0.10267

 Side 1  free  transition at x/c =  0.2521   41
 Side 2 forced transition at x/c =  1.0000   35

   3   rms: 0.2191E-02   max: -.1375E-01   D at   51  1
       a = 19.400      CL =  1.7866
      Cm = -0.1226     CD =  0.10782   =>   CDf =  0.00558    CDp =  0.10224

 Side 1  free  transition at x/c =  0.2522   41
 Side 2 forced transition at x/c =  1.0000   35

   4   rms: 0.1355E-03   max: -.5552E-03   D at   46  2
       a = 19.400      CL =  1.7867
      Cm = -0.1226     CD =  0.10783   =>   CDf =  0.00558    CDp =  0.10225

 Side 1  free  transition at x/c =  0.2522   41
 Side 2 forced transition at x/c =  1.0000   35

   5   rms: 0.4514E-05   max: 0.3974E-04   C at   35  2
       a = 19.400      CL =  1.7867
      Cm = -0.1226     CD =  0.10783   =>   CDf =  0.00558    CDp =  0.10225
 plradd ia,ip,cpol           94          66  2.06390303E-02

 Point added to stored polar  1
 Save file unspecified or not available
 Dump file unspecified or not available

.OPERva   c>  
.OPERva   c>  
.OPERva   c>   Calculating wake trajectory ...
 Calculating source influence matrix ...

 Solving BL system ...

 Side 1  free  transition at x/c =  0.2522   41
 Side 2 forced transition at x/c =  1.0000   35

   1   rms: 0.1893E-01   max: 0.7197E-01   D at   49  1   RLX: 0.250
       a = 19.600      CL =  1.7871
      Cm = -0.1226     CD =  0.10834   =>   CDf =  0.00559    CDp =  0.10276

 Side 1  free  transition at x/c =  0.2510   41
 Side 2 forced transition at x/c =  1.0000   35

   2   rms: 0.1418E-01   max: 0.4762E-01   D at   49  1
       a = 19.600      CL =  1.7898
      Cm = -0.1223     CD =  0.10969   =>   CDf =  0.00559    CDp =  0.10410

 Side 1  free  transition at x/c =  0.2476   41
 Side 2 forced transition at x/c =  1.0000   35

   3   rms: 0.1451E-02   max: -.9117E-02   D at   51  1
       a = 19.600      CL =  1.7906
      Cm = -0.1223     CD =  0.10942   =>   CDf =  0.00562    CDp =  0.10380

 Side 1  free  transition at x/c =  0.2476   41
 Side 2 forced transition at x/c =  1.0000   35

   4   rms: 0.9917E-04   max: -.4091E-03   D at   46  2
       a = 19.600      CL =  1.7908
      Cm = -0.1223     CD =  0.10943   =>   CDf =  0.00562    CDp =  0.10381
 plradd ia,ip,cpol           95          66  2.06390303E-02

 Point added to stored polar  1
 Save file unspecified or not available
 Dump file unspecified or not available

.OPERva   c>  
.OPERva   c>  
.OPERva   c>   Calculating wake trajectory ...
 Calculating source influence matrix ...

 Solving BL system ...

 Side 1  free  transition at x/c =  0.2476   41
 Side 2 forced transition at x/c =  1.0000   35

   1   rms: 0.1951E-01   max: -.9423E-01   D at   41  1   RLX: 0.248
       a = 19.800      CL =  1.7923
      Cm = -0.1222     CD =  0.10976   =>   CDf =  0.00563    CDp =  0.10413

 Side 1  free  transition at x/c =  0.2465   41
 Side 2 forced transition at x/c =  1.0000   35

   2   rms: 0.1498E-01   max: -.7406E-01   D at   41  1
       a = 19.800      CL =  1.7986
      Cm = -0.1220     CD =  0.11056   =>   CDf =  0.00564    CDp =  0.10491

 Side 1  free  transition at x/c =  0.2430   41
 Side 2 forced transition at x/c =  1.0000   35

   3   rms: 0.3084E-02   max: -.1925E-01   D at   50  1
       a = 19.800      CL =  1.8011
      Cm = -0.1219     CD =  0.11007   =>   CDf =  0.00570    CDp =  0.10437

 Side 1  free  transition at x/c =  0.2427   41
 Side 2 forced transition at x/c =  1.0000   35

   4   rms: 0.1571E-03   max: -.7988E-03   D at   46  2
       a = 19.800      CL =  1.8012
      Cm = -0.1220     CD =  0.11010   =>   CDf =  0.00573    CDp =  0.10437

 Side 1  free  transition at x/c =  0.2427   41
 Side 2 forced transition at x/c =  1.0000   35

   5   rms: 0.4528E-05   max: 0.4362E-04   C at   35  2
       a = 19.800      CL =  1.8012
      Cm = -0.1220     CD =  0.11010   =>   CDf =  0.00573    CDp =  0.10437
 plradd ia,ip,cpol           96          66  2.06390303E-02

 Point added to stored polar  1
 Save file unspecified or not available
 Dump file unspecified or not available

.OPERva   c>  
.OPERva   c>  
.OPERva   c>   Calculating wake trajectory ...
 Calculating source influence matrix ...

 Solving BL system ...

 Side 1  free  transition at x/c =  0.2427   41
 Side 2 forced transition at x/c =  1.0000   35

   1   rms: 0.2420E-01   max: -.8604E-01   D at   41  1   RLX: 0.248
       a = 20.000      CL =  1.8054
      Cm = -0.1219     CD =  0.11002   =>   CDf =  0.00573    CDp =  0.10428

 Side 1  free  transition at x/c =  0.2414   41
 Side 2 forced transition at x/c =  1.0000   35

   2   rms: 0.2146E-01   max: -.5584E-01   D at   41  1
       a = 20.000      CL =  1.8233
      Cm = -0.1216     CD =  0.10907   =>   CDf =  0.00576    CDp =  0.10331

 Side 1  free  transition at x/c =  0.2378   40
 Side 2 forced transition at x/c =  1.0000   35

   3   rms: 0.2099E-01   max: 0.1145E+00   D at   50  1
       a = 20.000      CL =  1.8029
      Cm = -0.1217     CD =  0.11223   =>   CDf =  0.00577    CDp =  0.10645

 Side 1  free  transition at x/c =  0.2385   40
 Side 2 forced transition at x/c =  1.0000   35

   4   rms: 0.1900E-02   max: 0.2452E-01   D at   50  1
       a = 20.000      CL =  1.8013
      Cm = -0.1216     CD =  0.11219   =>   CDf =  0.00569    CDp =  0.10650

 Side 1  free  transition at x/c =  0.2384   40
 Side 2 forced transition at x/c =  1.0000   35

   5   rms: 0.5688E-03   max: 0.4457E-02   D at   50  1
       a = 20.000      CL =  1.8008
      Cm = -0.1216     CD =  0.11224   =>   CDf =  0.00568    CDp =  0.10656

 Side 1  free  transition at x/c =  0.2384   40
 Side 2 forced transition at x/c =  1.0000   35

   6   rms: 0.2621E-04   max: 0.1216E-03   D at   46  2
       a = 20.000      CL =  1.8008
      Cm = -0.1216     CD =  0.11224   =>   CDf =  0.00568    CDp =  0.10656
 plradd ia,ip,cpol           97          66  2.06390303E-02

 Point added to stored polar  1
 Save file unspecified or not available
 Dump file unspecified or not available

.OPERva   c>  
.OPERva   c>  
.OPERva   c>  
        airfoil                    Re           Mach       Ncrit  XtripT  XtripB     file
       ------------------------  ------------  ----------  -----  ------  ------    -------------------
 >  1  NACA 8624                 2.500e5       0.058        9.00   1.000   1.000    

Enter polar output filename   s>  
.OPERva   c>  
 ==============================================================
 Polar  1
  
       XFOIL         Version 6.99
  
 Calculated polar for: NACA 8624                                       
  
 1 1 Reynolds number fixed          Mach number fixed         
  
 xtrf =   1.000 (top)        1.000 (bottom)  
 Mach =   0.058     Re =     0.250 e 6     Ncrit =   9.000
  
   alpha    CL        CD       CDp       CM     Top_Xtr  Bot_Xtr
  ------ -------- --------- --------- -------- -------- --------
  -3.000   0.2855   0.03307   0.02605  -0.1873   0.7469   0.2175
  -2.800   0.3172   0.03265   0.02556  -0.1888   0.7463   0.2226
  -2.600   0.3501   0.03195   0.02491  -0.1906   0.7459   0.2310
  -2.400   0.3823   0.03140   0.02440  -0.1922   0.7453   0.2382
  -2.200   0.4144   0.03088   0.02388  -0.1937   0.7448   0.2451
   0.000   0.6135   0.03166   0.02480  -0.1882   0.6977   0.3179
   0.200   0.6423   0.03118   0.02426  -0.1891   0.6965   0.3242
   0.400   0.6732   0.03047   0.02365  -0.1905   0.6955   0.3371
   0.600   0.7046   0.02980   0.02301  -0.1917   0.6946   0.3468
   0.800   0.7372   0.02911   0.02230  -0.1932   0.6938   0.3562
   1.000   0.7703   0.02843   0.02157  -0.1947   0.6930   0.3639
   1.200   0.8044   0.02764   0.02086  -0.1966   0.6922   0.3778
   1.400   0.8383   0.02696   0.02021  -0.1983   0.6913   0.3885
   1.600   0.8727   0.02631   0.01953  -0.2002   0.6903   0.3987
   1.800   0.9087   0.02560   0.01878  -0.2023   0.6891   0.4092
   2.000   0.9474   0.02478   0.01802  -0.2050   0.6879   0.4228
   2.800   1.0004   0.02594   0.01923  -0.1996   0.6636   0.4572
   3.000   1.0370   0.02521   0.01853  -0.2018   0.6618   0.4701
   3.200   1.0753   0.02450   0.01777  -0.2043   0.6596   0.4824
   4.200   1.1701   0.02503   0.01829  -0.2020   0.6315   0.5326
   4.400   1.2097   0.02434   0.01756  -0.2048   0.6281   0.5459
   4.600   1.1901   0.02623   0.01958  -0.1986   0.6186   0.5514
   4.800   1.2021   0.02671   0.02009  -0.1971   0.6122   0.5612
   5.000   1.2283   0.02652   0.01984  -0.1978   0.6074   0.5724
   5.200   1.2621   0.02601   0.01925  -0.1996   0.6030   0.5831
   5.400   1.3006   0.02538   0.01856  -0.2021   0.5984   0.5958
   5.600   1.2931   0.02676   0.02005  -0.1978   0.5916   0.6031
   5.800   1.2977   0.02767   0.02099  -0.1953   0.5850   0.6120
   6.000   1.3140   0.02802   0.02131  -0.1946   0.5795   0.6210
   6.200   1.3388   0.02788   0.02116  -0.1950   0.5746   0.6318
   6.400   1.3716   0.02747   0.02067  -0.1967   0.5697   0.6434
   6.600   1.3911   0.02776   0.02093  -0.1965   0.5643   0.6534
   6.800   1.3853   0.02909   0.02238  -0.1926   0.5581   0.6613
   7.000   1.3929   0.02982   0.02318  -0.1907   0.5523   0.6710
   7.200   1.4075   0.03025   0.02361  -0.1897   0.5472   0.6816
   7.600   1.4593   0.02999   0.02325  -0.1911   0.5374   0.7044
   7.800   1.4746   0.03044   0.02374  -0.1903   0.5322   0.7162
   8.000   1.4707   0.03182   0.02521  -0.1869   0.5268   0.7256
   8.200   1.4751   0.03278   0.02626  -0.1846   0.5211   0.7378
   8.400   1.4866   0.03337   0.02690  -0.1834   0.5161   0.7521
   8.600   1.5054   0.03356   0.02708  -0.1831   0.5114   0.7685
   8.800   1.5300   0.03338   0.02689  -0.1835   0.5066   0.7910
   9.000   1.5534   0.03315   0.02674  -0.1835   0.5015   0.8379
   9.400   1.5446   0.03560   0.02942  -0.1767   0.4915   1.0000
   9.600   1.5530   0.03653   0.03034  -0.1753   0.4863   1.0000
   9.800   1.5664   0.03714   0.03091  -0.1744   0.4816   1.0000
  10.000   1.5868   0.03730   0.03097  -0.1744   0.4769   1.0000
  10.200   1.6176   0.03689   0.03043  -0.1757   0.4715   1.0000
  10.400   1.6157   0.03845   0.03208  -0.1730   0.4671   1.0000
  10.600   1.6144   0.04002   0.03371  -0.1705   0.4621   1.0000
  10.800   1.6203   0.04113   0.03485  -0.1688   0.4571   1.0000
  11.000   1.6299   0.04200   0.03571  -0.1676   0.4523   1.0000
  11.200   1.6451   0.04245   0.03610  -0.1670   0.4476   1.0000
  11.400   1.6670   0.04245   0.03599  -0.1671   0.4426   1.0000
  11.600   1.6828   0.04293   0.03646  -0.1666   0.4376   1.0000
  11.800   1.6759   0.04502   0.03866  -0.1636   0.4332   1.0000
  12.000   1.6773   0.04653   0.04023  -0.1617   0.4283   1.0000
  12.200   1.6833   0.04768   0.04140  -0.1602   0.4234   1.0000
  12.400   1.6939   0.04848   0.04216  -0.1591   0.4187   1.0000
  12.600   1.7103   0.04880   0.04240  -0.1587   0.4138   1.0000
  12.800   1.7376   0.04834   0.04182  -0.1593   0.4082   1.0000
  13.000   1.7295   0.05064   0.04426  -0.1565   0.4045   1.0000
  13.200   1.7246   0.05278   0.04650  -0.1542   0.3997   1.0000
  13.400   1.7271   0.05432   0.04808  -0.1525   0.3947   1.0000
  13.600   1.7340   0.05547   0.04923  -0.1513   0.3899   1.0000
  13.800   1.7468   0.05609   0.04979  -0.1506   0.3851   1.0000
  14.000   1.7674   0.05602   0.04961  -0.1505   0.3799   1.0000
  14.200   1.7704   0.05756   0.05121  -0.1490   0.3756   1.0000
  14.400   1.7614   0.06022   0.05400  -0.1467   0.3710   1.0000
  14.600   1.7609   0.06214   0.05597  -0.1450   0.3661   1.0000
  14.800   1.7651   0.06361   0.05746  -0.1438   0.3612   1.0000
  15.000   1.7751   0.06449   0.05831  -0.1429   0.3565   1.0000
  15.200   1.7917   0.06468   0.05840  -0.1426   0.3514   1.0000
  15.400   1.7976   0.06598   0.05972  -0.1415   0.3467   1.0000
  15.600   1.7861   0.06906   0.06293  -0.1393   0.3423   1.0000
  15.800   1.7832   0.07130   0.06525  -0.1378   0.3374   1.0000
  16.000   1.7856   0.07302   0.06700  -0.1367   0.3325   1.0000
  16.200   1.7930   0.07419   0.06812  -0.1358   0.3278   1.0000
  16.400   1.8081   0.07447   0.06829  -0.1354   0.3226   1.0000
  16.600   1.8091   0.07633   0.07020  -0.1342   0.3180   1.0000
  16.800   1.7986   0.07951   0.07353  -0.1326   0.3136   1.0000
  17.000   1.7947   0.08201   0.07610  -0.1314   0.3088   1.0000
  17.200   1.7937   0.08418   0.07830  -0.1303   0.3038   1.0000
  17.400   1.7998   0.08548   0.07955  -0.1296   0.2991   1.0000
  17.600   1.8160   0.08555   0.07950  -0.1292   0.2937   1.0000
  17.800   1.8098   0.08833   0.08238  -0.1281   0.2896   1.0000
  18.000   1.8003   0.09157   0.08575  -0.1270   0.2851   1.0000
  18.200   1.7920   0.09466   0.08892  -0.1261   0.2802   1.0000
  18.400   1.7936   0.09652   0.09078  -0.1254   0.2754   1.0000
  18.600   1.8013   0.09760   0.09178  -0.1249   0.2707   1.0000
  18.800   1.8158   0.09778   0.09187  -0.1245   0.2654   1.0000
  19.000   1.8014   0.10171   0.09598  -0.1237   0.2616   1.0000
  19.200   1.7894   0.10535   0.09973  -0.1230   0.2570   1.0000
  19.400   1.7867   0.10783   0.10225  -0.1226   0.2522   1.0000
  19.600   1.7908   0.10943   0.10381  -0.1223   0.2476   1.0000
  19.800   1.8012   0.11010   0.10437  -0.1220   0.2427   1.0000
  20.000   1.8008   0.11224   0.10656  -0.1216   0.2384   1.0000

.OPERva   c>  
 XFOIL   c>  